REMARK SMILES C=c1ccc2nc(-c3ccccc3)cc(=C(O)OCC)c2c1
REMARK SMILES IDX 16 1 17 2 18 4 19 5 20 6 15 7 14 8 21 9 7 10 22 11 5 12 6 13
REMARK SMILES IDX 2 14 4 15 3 16 1 17 8 18 9 19 13 20 10 21 12 22 11 23
REMARK H PARENT 17 3
ROOT
ATOM      1  C   UNL     1      -2.297   0.143  -0.507  1.00  0.00     0.284 C 
ENDROOT
BRANCH   1   2
ATOM      2  O   UNL     1      -3.309   1.061  -0.637  1.00  0.00    -0.481 OA
ATOM      3  H   UNL     1      -4.029   0.564  -1.062  1.00  0.00     0.297 HD
ENDBRANCH   1   2
BRANCH   1   4
ATOM      4  O   UNL     1      -2.677  -1.176  -0.683  1.00  0.00    -0.465 OA
BRANCH   4   5
ATOM      5  C   UNL     1      -3.337  -1.662   0.491  1.00  0.00     0.229 C 
ATOM      6  C   UNL     1      -3.628  -3.138   0.289  1.00  0.00     0.049 C 
ENDBRANCH   4   5
ENDBRANCH   1   4
BRANCH   1   7
ATOM      7  C   UNL     1      -0.999   0.489  -0.310  1.00  0.00     0.066 A 
ATOM      8  C   UNL     1       0.005  -0.582  -0.282  1.00  0.00     0.045 A 
ATOM      9  C   UNL     1      -0.491   1.863  -0.131  1.00  0.00     0.015 A 
ATOM     10  C   UNL     1       1.315  -0.319  -0.120  1.00  0.00     0.072 A 
ATOM     11  C   UNL     1      -1.202   3.006  -0.063  1.00  0.00     0.018 A 
ATOM     12  C   UNL     1       1.018   1.958   0.009  1.00  0.00     0.072 A 
ATOM     13  N   UNL     1       1.838   0.948   0.009  1.00  0.00    -0.248 NA
ATOM     14  C   UNL     1      -0.578   4.308   0.114  1.00  0.00    -0.032 A 
ATOM     15  C   UNL     1       1.622   3.312   0.164  1.00  0.00     0.029 A 
ATOM     16  C   UNL     1       0.862   4.411   0.213  1.00  0.00     0.010 A 
ATOM     17  C   UNL     1      -1.334   5.415   0.181  1.00  0.00     0.017 C 
BRANCH  10  18
ATOM     18  C   UNL     1       2.282  -1.444  -0.120  1.00  0.00     0.000 A 
ATOM     19  C   UNL     1       3.450  -1.358  -0.893  1.00  0.00     0.010 A 
ATOM     20  C   UNL     1       2.079  -2.595   0.659  1.00  0.00     0.010 A 
ATOM     21  C   UNL     1       4.378  -2.402  -0.906  1.00  0.00     0.001 A 
ATOM     22  C   UNL     1       3.008  -3.639   0.647  1.00  0.00     0.001 A 
ATOM     23  C   UNL     1       4.155  -3.543  -0.139  1.00  0.00     0.000 A 
ENDBRANCH  10  18
ENDBRANCH   1   7
TORSDOF 5
