REMARK SMILES Cc1nc2nccc-2c(NCc2ccccc2)[nH]1
REMARK SMILES IDX 10 1 9 3 18 4 2 5 3 6 8 7 4 8 7 9 5 10 6 11 1 13 11 14 12 15
REMARK SMILES IDX 13 16 17 17 14 18 16 19 15 20
REMARK H PARENT 10 2 18 12
ROOT
ATOM      1  N   UNL     1       0.123  -0.184   0.020  1.00  0.00    -0.367 N 
ATOM      2  H   UNL     1       0.659  -0.471   0.836  1.00  0.00     0.162 HD
ENDROOT
BRANCH   1   3
ATOM      3  C   UNL     1      -1.241  -0.162   0.242  1.00  0.00     0.116 A 
ATOM      4  N   UNL     1      -2.129   0.363  -0.674  1.00  0.00    -0.330 N 
ATOM      5  C   UNL     1      -3.494   0.372  -0.478  1.00  0.00     0.106 A 
ATOM      6  N   UNL     1      -4.085  -0.082   0.586  1.00  0.00    -0.215 NA
ATOM      7  C   UNL     1      -1.796  -0.659   1.359  1.00  0.00     0.061 A 
ATOM      8  C   UNL     1      -3.263  -0.607   1.538  1.00  0.00     0.164 A 
ATOM      9  C   UNL     1      -1.337  -1.285   2.558  1.00  0.00     0.036 A 
ATOM     10  N   UNL     1      -3.640  -1.118   2.679  1.00  0.00    -0.236 NA
ATOM     11  C   UNL     1      -2.450  -1.522   3.274  1.00  0.00     0.114 A 
ATOM     12  H   UNL     1      -1.745   0.629  -1.568  1.00  0.00     0.169 HD
ATOM     13  C   UNL     1      -4.350   0.939  -1.582  1.00  0.00     0.087 C 
ENDBRANCH   1   3
BRANCH   1  14
ATOM     14  C   UNL     1       0.852   0.725  -0.844  1.00  0.00     0.150 C 
BRANCH  14  15
ATOM     15  C   UNL     1       2.329   0.429  -0.755  1.00  0.00    -0.029 A 
ATOM     16  C   UNL     1       3.185   1.268  -0.027  1.00  0.00     0.005 A 
ATOM     17  C   UNL     1       2.861  -0.711  -1.374  1.00  0.00     0.005 A 
ATOM     18  C   UNL     1       4.547   0.980   0.065  1.00  0.00     0.000 A 
ATOM     19  C   UNL     1       4.224  -0.998  -1.280  1.00  0.00     0.000 A 
ATOM     20  C   UNL     1       5.066  -0.151  -0.563  1.00  0.00     0.000 A 
ENDBRANCH  14  15
ENDBRANCH   1  14
TORSDOF 3
