REMARK SMILES O=C1CN=C(c2ccc[nH]2)c2cc(Cl)ccc2N1
REMARK SMILES IDX 11 1 12 2 13 3 14 4 15 5 16 6 17 7 18 8 2 9 1 10 5 13 4 14
REMARK SMILES IDX 3 15 6 17 7 18 10 19 8 20 9 21
REMARK H PARENT 18 11 10 22
REMARK Flexibility Score:   15.900
ROOT
ATOM      1  C   UNL     1      -0.545  -0.239  -0.487  1.00  0.00     0.027 A 
ATOM      2  C   UNL     1      -0.128  -1.252  -1.367  1.00  0.00     0.033 A 
ATOM      3  C   UNL     1      -1.012  -2.261  -1.739  1.00  0.00     0.041 A 
ATOM      4  Cl  UNL     1      -0.487  -3.510  -2.799  1.00  0.00    -0.084 Cl
ATOM      5  C   UNL     1      -2.311  -2.277  -1.242  1.00  0.00     0.023 A 
ATOM      6  C   UNL     1      -2.742  -1.252  -0.397  1.00  0.00     0.028 A 
ATOM      7  C   UNL     1      -1.880  -0.203  -0.052  1.00  0.00     0.050 A 
ENDROOT
BRANCH   7   8
ATOM      8  N   UNL     1      -2.435   0.831   0.717  1.00  0.00    -0.324 N 
ATOM      9  C   UNL     1      -2.056   2.148   0.724  1.00  0.00     0.246 CG0
ATOM     10  O   UNL     1      -2.675   2.950   1.424  1.00  0.00    -0.273 OA
ATOM     11  H   UNL     1      -3.309   0.674   1.204  1.00  0.00     0.170 HD
ATOM     12  G   UNL     1      -0.957   2.578  -0.234  1.00  0.00     0.000 G0
ENDBRANCH   7   8
BRANCH   1  13
ATOM     13  C   UNL     1       0.476   0.712   0.039  1.00  0.00     0.091 C 
BRANCH  13  14
ATOM     14  N   UNL     1       0.319   1.988   0.154  1.00  0.00    -0.273 NA
BRANCH  14  15
ATOM     15  C   UNL     1      -0.957   2.578  -0.234  1.00  0.00     0.243 CG0
ATOM     16  G   UNL     1      -2.056   2.148   0.724  1.00  0.00     0.000 G0
ENDBRANCH  14  15
ENDBRANCH  13  14
BRANCH  13  17
ATOM     17  C   UNL     1       1.765   0.209   0.497  1.00  0.00     0.064 A 
ATOM     18  C   UNL     1       2.211  -1.068   0.805  1.00  0.00     0.030 A 
ATOM     19  N   UNL     1       2.822   1.058   0.763  1.00  0.00    -0.360 N 
ATOM     20  C   UNL     1       3.565  -0.979   1.214  1.00  0.00     0.020 A 
ATOM     21  C   UNL     1       3.916   0.348   1.174  1.00  0.00     0.083 A 
ATOM     22  H   UNL     1       2.758   2.064   0.665  1.00  0.00     0.166 HD
ENDBRANCH  13  17
ENDBRANCH   1  13
TORSDOF 1
