REMARK SMILES NC(=[NH2+])NN=Cc1c(Cl)cccc1Cl
REMARK SMILES IDX 5 1 4 2 2 3 1 4 3 8 6 11 7 12 8 13 13 14 10 15 12 16 11 17
REMARK SMILES IDX 9 18 14 19
REMARK H PARENT 4 5 1 6 1 7 3 9 3 10
ROOT
ATOM      1  N   UNL     1      -0.970   0.062  -0.082  1.00  0.00    -0.121 NA
ENDROOT
BRANCH   1   2
ATOM      2  N   UNL     1      -2.136  -0.040  -0.779  1.00  0.00    -0.157 N 
ATOM      3  C   UNL     1      -3.272   0.429  -0.185  1.00  0.00     0.362 C 
ATOM      4  N   UNL     1      -4.455   0.339  -0.801  1.00  0.00    -0.289 N 
ATOM      5  H   UNL     1      -2.198  -0.444  -1.710  1.00  0.00     0.295 HD
ATOM      6  H   UNL     1      -4.550  -0.080  -1.717  1.00  0.00     0.256 HD
ATOM      7  H   UNL     1      -5.296   0.688  -0.360  1.00  0.00     0.256 HD
BRANCH   3   8
ATOM      8  N   UNL     1      -3.203   0.987   1.027  1.00  0.00    -0.289 N 
ATOM      9  H   UNL     1      -2.278   1.044   1.446  1.00  0.00     0.256 HD
ATOM     10  H   UNL     1      -3.996   1.357   1.527  1.00  0.00     0.256 HD
ENDBRANCH   3   8
ENDBRANCH   1   2
BRANCH   1  11
ATOM     11  C   UNL     1       0.096  -0.317  -0.717  1.00  0.00     0.161 C 
BRANCH  11  12
ATOM     12  C   UNL     1       1.449  -0.291  -0.110  1.00  0.00     0.033 A 
ATOM     13  C   UNL     1       2.424  -1.181  -0.599  1.00  0.00     0.051 A 
ATOM     14  C   UNL     1       1.800   0.590   0.928  1.00  0.00     0.051 A 
ATOM     15  C   UNL     1       3.714  -1.191  -0.057  1.00  0.00     0.021 A 
ATOM     16  C   UNL     1       3.095   0.570   1.463  1.00  0.00     0.021 A 
ATOM     17  C   UNL     1       4.049  -0.318   0.973  1.00  0.00     0.003 A 
ATOM     18  Cl  UNL     1       2.099  -2.330  -1.852  1.00  0.00    -0.084 Cl
ATOM     19  Cl  UNL     1       0.725   1.776   1.589  1.00  0.00    -0.084 Cl
ENDBRANCH  11  12
ENDBRANCH   1  11
TORSDOF 4
