REMARK SMILES Nc1ccc(S(=O)(=O)N=c2cnc3ccccc3[nH]2)cc1
REMARK SMILES IDX 6 1 7 2 8 3 9 4 10 5 19 6 18 7 11 8 17 9 13 10 12 11 16 12
REMARK SMILES IDX 14 13 15 14 5 16 4 17 20 18 3 19 21 20 2 21 1 22
REMARK H PARENT 19 15 1 23 1 24
ROOT
ATOM      1  S   UNL     1       0.898  -0.536  -1.314  1.00  0.00     0.284 S 
ATOM      2  O   UNL     1       0.992  -1.621  -2.271  1.00  0.00    -0.199 OA
ATOM      3  O   UNL     1       0.357   0.747  -1.734  1.00  0.00    -0.199 OA
ENDROOT
BRANCH   1   4
ATOM      4  N   UNL     1       0.103  -1.058  -0.008  1.00  0.00    -0.140 NA
BRANCH   4   5
ATOM      5  C   UNL     1      -1.160  -0.823   0.115  1.00  0.00     0.162 A 
ATOM      6  N   UNL     1      -2.006  -0.109  -0.702  1.00  0.00    -0.336 N 
ATOM      7  C   UNL     1      -3.312   0.186  -0.280  1.00  0.00     0.066 A 
ATOM      8  C   UNL     1      -1.779  -1.425   1.369  1.00  0.00     0.159 A 
ATOM      9  C   UNL     1      -4.158   0.970  -1.073  1.00  0.00     0.028 A 
ATOM     10  C   UNL     1      -3.803  -0.387   0.913  1.00  0.00     0.087 A 
ATOM     11  N   UNL     1      -3.006  -1.212   1.733  1.00  0.00    -0.251 NA
ATOM     12  C   UNL     1      -5.471   1.216  -0.668  1.00  0.00     0.002 A 
ATOM     13  C   UNL     1      -5.119  -0.132   1.305  1.00  0.00     0.030 A 
ATOM     14  C   UNL     1      -5.950   0.669   0.521  1.00  0.00     0.002 A 
ATOM     15  H   UNL     1      -1.601   0.496  -1.413  1.00  0.00     0.168 HD
ENDBRANCH   4   5
ENDBRANCH   1   4
BRANCH   1  16
ATOM     16  C   UNL     1       2.540  -0.237  -0.698  1.00  0.00     0.089 A 
ATOM     17  C   UNL     1       2.901   1.042  -0.271  1.00  0.00     0.024 A 
ATOM     18  C   UNL     1       3.461  -1.286  -0.656  1.00  0.00     0.024 A 
ATOM     19  C   UNL     1       4.197   1.267   0.201  1.00  0.00     0.027 A 
ATOM     20  C   UNL     1       4.753  -1.046  -0.181  1.00  0.00     0.027 A 
ATOM     21  C   UNL     1       5.147   0.239   0.205  1.00  0.00     0.031 A 
BRANCH  21  22
ATOM     22  N   UNL     1       6.401   0.443   0.791  1.00  0.00    -0.399 N 
ATOM     23  H   UNL     1       7.112  -0.214   0.486  1.00  0.00     0.156 HD
ATOM     24  H   UNL     1       6.725   1.405   0.751  1.00  0.00     0.156 HD
ENDBRANCH  21  22
ENDBRANCH   1  16
TORSDOF 4
