REMARK SMILES Cc1nc2[nH]ccc2c(=NCc2ccccc2)[nH]1
REMARK SMILES IDX 10 1 9 2 18 3 2 4 3 5 8 6 4 7 7 8 5 9 6 10 1 12 11 14 12 15
REMARK SMILES IDX 13 16 17 17 14 18 16 19 15 20
REMARK H PARENT 18 11 5 13
ROOT
ATOM      1  N   UNL     1       0.206   0.313  -0.357  1.00  0.00    -0.263 NA
ENDROOT
BRANCH   1   2
ATOM      2  C   UNL     1      -1.046   0.177  -0.105  1.00  0.00     0.137 A 
ATOM      3  N   UNL     1      -1.991   0.891  -0.801  1.00  0.00    -0.328 N 
ATOM      4  C   UNL     1      -3.364   0.851  -0.644  1.00  0.00     0.106 A 
ATOM      5  N   UNL     1      -3.972   0.092   0.230  1.00  0.00    -0.217 NA
ATOM      6  C   UNL     1      -1.700  -0.679   0.878  1.00  0.00     0.061 A 
ATOM      7  C   UNL     1      -3.088  -0.643   0.954  1.00  0.00     0.143 A 
ATOM      8  C   UNL     1      -1.274  -1.615   1.858  1.00  0.00     0.033 A 
ATOM      9  N   UNL     1      -3.495  -1.509   1.927  1.00  0.00    -0.346 N 
ATOM     10  C   UNL     1      -2.399  -2.110   2.488  1.00  0.00     0.085 A 
ATOM     11  H   UNL     1      -1.598   1.505  -1.500  1.00  0.00     0.169 HD
ATOM     12  C   UNL     1      -4.198   1.735  -1.534  1.00  0.00     0.087 C 
ATOM     13  H   UNL     1      -4.462  -1.665   2.176  1.00  0.00     0.167 HD
ENDBRANCH   1   2
BRANCH   1  14
ATOM     14  C   UNL     1       1.220  -0.431   0.366  1.00  0.00     0.180 C 
BRANCH  14  15
ATOM     15  C   UNL     1       2.600  -0.073  -0.137  1.00  0.00    -0.027 A 
ATOM     16  C   UNL     1       3.309   0.996   0.430  1.00  0.00     0.005 A 
ATOM     17  C   UNL     1       3.173  -0.777  -1.205  1.00  0.00     0.005 A 
ATOM     18  C   UNL     1       4.577   1.335  -0.044  1.00  0.00     0.000 A 
ATOM     19  C   UNL     1       4.442  -0.437  -1.678  1.00  0.00     0.000 A 
ATOM     20  C   UNL     1       5.145   0.616  -1.095  1.00  0.00     0.000 A 
ENDBRANCH  14  15
ENDBRANCH   1  14
TORSDOF 3
