REMARK SMILES Cc1nc(NCc2ccccc2)c2ccnc-2[nH]1
REMARK SMILES IDX 5 1 4 3 18 4 2 5 17 6 3 7 16 8 13 9 15 10 14 11 1 13 6 14
REMARK SMILES IDX 7 15 8 16 12 17 9 18 11 19 10 20
REMARK H PARENT 5 2 18 12
ROOT
ATOM      1  N   UNL     1       0.200   0.034  -0.165  1.00  0.00    -0.365 N 
ATOM      2  H   UNL     1       0.690   0.863  -0.480  1.00  0.00     0.162 HD
ENDROOT
BRANCH   1   3
ATOM      3  C   UNL     1      -1.177   0.174  -0.070  1.00  0.00     0.139 A 
ATOM      4  N   UNL     1      -3.901   0.397   0.156  1.00  0.00    -0.328 N 
ATOM      5  C   UNL     1      -3.204  -0.614   0.769  1.00  0.00     0.106 A 
ATOM      6  C   UNL     1      -3.251   1.320  -0.590  1.00  0.00     0.142 A 
ATOM      7  N   UNL     1      -1.907  -0.747   0.686  1.00  0.00    -0.218 NA
ATOM      8  N   UNL     1      -3.705   2.349  -1.253  1.00  0.00    -0.238 NA
ATOM      9  C   UNL     1      -1.786   1.196  -0.709  1.00  0.00     0.061 A 
ATOM     10  C   UNL     1      -2.569   2.916  -1.822  1.00  0.00     0.114 A 
ATOM     11  C   UNL     1      -1.413   2.290  -1.544  1.00  0.00     0.036 A 
ATOM     12  H   UNL     1      -4.903   0.475   0.234  1.00  0.00     0.169 HD
ATOM     13  C   UNL     1      -3.981  -1.613   1.584  1.00  0.00     0.087 C 
ENDBRANCH   1   3
BRANCH   1  14
ATOM     14  C   UNL     1       0.970  -0.835   0.701  1.00  0.00     0.150 C 
BRANCH  14  15
ATOM     15  C   UNL     1       2.432  -0.731   0.338  1.00  0.00    -0.029 A 
ATOM     16  C   UNL     1       2.923  -1.370  -0.811  1.00  0.00     0.005 A 
ATOM     17  C   UNL     1       3.312   0.032   1.119  1.00  0.00     0.005 A 
ATOM     18  C   UNL     1       4.269  -1.261  -1.162  1.00  0.00     0.000 A 
ATOM     19  C   UNL     1       4.659   0.140   0.766  1.00  0.00     0.000 A 
ATOM     20  C   UNL     1       5.137  -0.508  -0.372  1.00  0.00     0.000 A 
ENDBRANCH  14  15
ENDBRANCH   1  14
TORSDOF 3
