REMARK SMILES Nc1ccc(S(=O)(=O)Nc2cnc3ccccc3n2)cc1
REMARK SMILES IDX 2 1 3 2 4 3 5 4 20 5 21 6 1 7 6 10 7 11 8 12 9 13 10 15
REMARK SMILES IDX 11 16 19 17 12 18 18 19 13 20 17 21 14 22 16 23 15 24
REMARK H PARENT 1 8 1 9 9 14
ROOT
ATOM      1  C   UNL     1      -2.892  -0.253  -1.567  1.00  0.00     0.031 A 
ATOM      2  C   UNL     1      -2.455  -1.075  -0.523  1.00  0.00     0.027 A 
ATOM      3  C   UNL     1      -2.019  -0.525   0.686  1.00  0.00     0.024 A 
ATOM      4  C   UNL     1      -1.967   0.863   0.828  1.00  0.00     0.088 A 
ATOM      5  C   UNL     1      -2.361   1.699  -0.219  1.00  0.00     0.024 A 
ATOM      6  C   UNL     1      -2.796   1.135  -1.421  1.00  0.00     0.027 A 
ENDROOT
BRANCH   1   7
ATOM      7  N   UNL     1      -3.210  -0.807  -2.812  1.00  0.00    -0.399 N 
ATOM      8  H   UNL     1      -3.801  -0.216  -3.388  1.00  0.00     0.156 HD
ATOM      9  H   UNL     1      -3.556  -1.761  -2.761  1.00  0.00     0.156 HD
ENDBRANCH   1   7
BRANCH   4  10
ATOM     10  S   UNL     1      -1.412   1.581   2.357  1.00  0.00     0.263 S 
ATOM     11  O   UNL     1      -2.134   2.823   2.538  1.00  0.00    -0.201 OA
ATOM     12  O   UNL     1      -1.433   0.550   3.374  1.00  0.00    -0.201 OA
BRANCH  10  13
ATOM     13  N   UNL     1       0.188   1.995   2.040  1.00  0.00    -0.262 N 
ATOM     14  H   UNL     1       0.247   2.794   1.413  1.00  0.00     0.182 HD
BRANCH  13  15
ATOM     15  C   UNL     1       1.024   0.947   1.608  1.00  0.00     0.159 A 
ATOM     16  C   UNL     1       1.369  -0.155   2.372  1.00  0.00     0.159 A 
ATOM     17  N   UNL     1       1.435   1.115   0.341  1.00  0.00    -0.227 NA
ATOM     18  N   UNL     1       2.138  -1.153   1.879  1.00  0.00    -0.251 NA
ATOM     19  C   UNL     1       2.199   0.126  -0.167  1.00  0.00     0.091 A 
ATOM     20  C   UNL     1       2.553  -1.014   0.605  1.00  0.00     0.089 A 
ATOM     21  C   UNL     1       2.651   0.216  -1.477  1.00  0.00     0.031 A 
ATOM     22  C   UNL     1       3.341  -2.001   0.028  1.00  0.00     0.030 A 
ATOM     23  C   UNL     1       3.442  -0.784  -2.045  1.00  0.00     0.002 A 
ATOM     24  C   UNL     1       3.789  -1.896  -1.290  1.00  0.00     0.002 A 
ENDBRANCH  13  15
ENDBRANCH  10  13
ENDBRANCH   4  10
TORSDOF 4
