REMARK SMILES NC(=[NH2+])N=NCc1c(Cl)cccc1Cl
REMARK SMILES IDX 5 1 6 2 7 3 8 4 13 5 10 6 12 7 11 8 9 9 14 10 4 11 2 12 1 13
REMARK SMILES IDX 3 16
REMARK H PARENT 1 14 1 15 3 17 3 18
ROOT
ATOM      1  N   UNL     1       1.104  -0.163   0.153  1.00  0.00    -0.105 NA
ENDROOT
BRANCH   1   2
ATOM      2  C   UNL     1       0.061  -0.977   0.807  1.00  0.00     0.224 C 
BRANCH   2   3
ATOM      3  C   UNL     1      -1.315  -0.465   0.459  1.00  0.00     0.014 A 
ATOM      4  C   UNL     1      -1.940   0.531   1.234  1.00  0.00     0.047 A 
ATOM      5  C   UNL     1      -1.999  -0.929  -0.680  1.00  0.00     0.047 A 
ATOM      6  C   UNL     1      -3.216   1.004   0.911  1.00  0.00     0.021 A 
ATOM      7  C   UNL     1      -3.276  -0.455  -1.001  1.00  0.00     0.021 A 
ATOM      8  C   UNL     1      -3.888   0.506  -0.202  1.00  0.00     0.003 A 
ATOM      9  Cl  UNL     1      -1.157   1.247   2.601  1.00  0.00    -0.084 Cl
ATOM     10  Cl  UNL     1      -1.293  -2.081  -1.761  1.00  0.00    -0.084 Cl
ENDBRANCH   2   3
ENDBRANCH   1   2
BRANCH   1  11
ATOM     11  N   UNL     1       2.259  -0.561   0.421  1.00  0.00     0.040 NA
BRANCH  11  12
ATOM     12  C   UNL     1       3.271   0.146  -0.150  1.00  0.00     0.402 C 
ATOM     13  N   UNL     1       4.514  -0.205   0.079  1.00  0.00    -0.286 N 
ATOM     14  H   UNL     1       5.307   0.278  -0.314  1.00  0.00     0.256 HD
ATOM     15  H   UNL     1       4.675  -1.002   0.683  1.00  0.00     0.256 HD
BRANCH  12  16
ATOM     16  N   UNL     1       3.046   1.179  -0.931  1.00  0.00    -0.286 N 
ATOM     17  H   UNL     1       2.072   1.419  -1.084  1.00  0.00     0.256 HD
ATOM     18  H   UNL     1       3.770   1.724  -1.370  1.00  0.00     0.256 HD
ENDBRANCH  12  16
ENDBRANCH  11  12
ENDBRANCH   1  11
TORSDOF 5
