REMARK SMILES Cc1cc(C)cc(NC(N)=[NH+]c2ccccc2C(F)(F)F)c1
REMARK SMILES IDX 11 1 9 3 8 4 10 5 7 9 22 10 6 11 2 12 4 13 3 14 1 15 5 16
REMARK SMILES IDX 12 17 13 18 17 19 14 20 16 21 15 22 18 23 19 24 20 25 21 26
REMARK H PARENT 11 2 8 6 10 7 10 8
ROOT
ATOM      1  N   UNL     1       1.141  -0.305   0.605  1.00  0.00    -0.245 N 
ATOM      2  H   UNL     1       0.557  -0.333  -0.230  1.00  0.00     0.267 HD
ENDROOT
BRANCH   1   3
ATOM      3  C   UNL     1       0.492  -0.162   1.790  1.00  0.00     0.351 C 
ATOM      4  N   UNL     1      -0.859  -0.231   1.878  1.00  0.00    -0.245 N 
ATOM      5  N   UNL     1       1.157   0.060   2.941  1.00  0.00    -0.290 N 
ATOM      6  H   UNL     1      -1.248  -0.544   2.760  1.00  0.00     0.267 HD
ATOM      7  H   UNL     1       0.664   0.204   3.812  1.00  0.00     0.256 HD
ATOM      8  H   UNL     1       2.142   0.292   2.933  1.00  0.00     0.256 HD
BRANCH   4   9
ATOM      9  C   UNL     1      -1.780   0.015   0.824  1.00  0.00     0.100 A 
ATOM     10  C   UNL     1      -3.017  -0.629   0.884  1.00  0.00     0.046 A 
ATOM     11  C   UNL     1      -1.524   0.926  -0.204  1.00  0.00     0.046 A 
ATOM     12  C   UNL     1      -3.983  -0.409  -0.105  1.00  0.00    -0.047 A 
ATOM     13  C   UNL     1      -2.465   1.134  -1.219  1.00  0.00    -0.047 A 
ATOM     14  C   UNL     1      -3.692   0.462  -1.162  1.00  0.00     0.007 A 
ATOM     15  C   UNL     1      -5.295  -1.139  -0.068  1.00  0.00     0.044 C 
ATOM     16  C   UNL     1      -2.197   2.124  -2.317  1.00  0.00     0.044 C 
ENDBRANCH   4   9
ENDBRANCH   1   3
BRANCH   1  17
ATOM     17  C   UNL     1       2.542  -0.501   0.408  1.00  0.00     0.111 A 
ATOM     18  C   UNL     1       3.312  -1.211   1.337  1.00  0.00     0.043 A 
ATOM     19  C   UNL     1       3.143  -0.054  -0.781  1.00  0.00     0.094 A 
ATOM     20  C   UNL     1       4.676  -1.421   1.123  1.00  0.00     0.004 A 
ATOM     21  C   UNL     1       4.519  -0.263  -0.982  1.00  0.00     0.017 A 
ATOM     22  C   UNL     1       5.281  -0.939  -0.032  1.00  0.00     0.001 A 
BRANCH  19  23
ATOM     23  C   UNL     1       2.351   0.702  -1.809  1.00  0.00     0.419 C 
ATOM     24  F   UNL     1       2.158   2.000  -1.451  1.00  0.00    -0.166 F 
ATOM     25  F   UNL     1       2.908   0.717  -3.045  1.00  0.00    -0.166 F 
ATOM     26  F   UNL     1       1.096   0.182  -1.963  1.00  0.00    -0.166 F 
ENDBRANCH  19  23
ENDBRANCH   1  17
TORSDOF 4
