REMARK SMILES CCOC(=O)c1cc(-c2ccccc2)nc2ccc(C)cc12
REMARK SMILES IDX 3 1 2 2 1 3 4 4 5 5 6 6 7 7 22 8 8 9 21 10 16 11 15 12 19 13
REMARK SMILES IDX 17 14 18 15 20 16 9 17 10 18 14 19 11 20 13 21 12 22
REMARK H PARENT
ROOT
ATOM      1  O   UNL     1      -2.168  -1.877   0.221  1.00  0.00    -0.462 OA
ENDROOT
BRANCH   1   2
ATOM      2  C   UNL     1      -3.399  -2.565   0.486  1.00  0.00     0.230 C 
ATOM      3  C   UNL     1      -4.477  -2.097  -0.474  1.00  0.00     0.049 C 
ENDBRANCH   1   2
BRANCH   1   4
ATOM      4  C   UNL     1      -2.019  -0.679   0.843  1.00  0.00     0.338 C 
ATOM      5  O   UNL     1      -2.821  -0.148   1.591  1.00  0.00    -0.246 OA
BRANCH   4   6
ATOM      6  C   UNL     1      -0.718  -0.092   0.441  1.00  0.00     0.071 A 
ATOM      7  C   UNL     1       0.399  -0.935   0.424  1.00  0.00     0.045 A 
ATOM      8  C   UNL     1      -0.597   1.278   0.115  1.00  0.00     0.015 A 
ATOM      9  C   UNL     1       1.629  -0.407   0.072  1.00  0.00     0.072 A 
ATOM     10  C   UNL     1      -1.663   2.218   0.087  1.00  0.00     0.014 A 
ATOM     11  C   UNL     1       0.696   1.717  -0.220  1.00  0.00     0.072 A 
ATOM     12  N   UNL     1       1.766   0.905  -0.236  1.00  0.00    -0.248 NA
ATOM     13  C   UNL     1      -1.451   3.561  -0.243  1.00  0.00    -0.050 A 
ATOM     14  C   UNL     1       0.887   3.048  -0.559  1.00  0.00     0.029 A 
ATOM     15  C   UNL     1      -0.163   3.968  -0.579  1.00  0.00     0.005 A 
ATOM     16  C   UNL     1      -2.598   4.525  -0.290  1.00  0.00     0.044 C 
BRANCH   9  17
ATOM     17  C   UNL     1       2.867  -1.212   0.021  1.00  0.00     0.000 A 
ATOM     18  C   UNL     1       4.114  -0.630   0.321  1.00  0.00     0.010 A 
ATOM     19  C   UNL     1       2.862  -2.575  -0.333  1.00  0.00     0.010 A 
ATOM     20  C   UNL     1       5.296  -1.375   0.286  1.00  0.00     0.001 A 
ATOM     21  C   UNL     1       4.044  -3.322  -0.370  1.00  0.00     0.001 A 
ATOM     22  C   UNL     1       5.260  -2.722  -0.058  1.00  0.00     0.000 A 
ENDBRANCH   9  17
ENDBRANCH   4   6
ENDBRANCH   1   4
TORSDOF 4
