REMARK SMILES OC1=C[C@H](c2ccc(O)cc2)Oc2cc(O)cc(O)c21
REMARK SMILES IDX 2 1 3 2 4 3 12 4 13 5 14 6 15 7 17 8 18 9 20 10 1 11 5 13
REMARK SMILES IDX 6 14 11 15 7 16 10 17 8 18 9 19 19 21 16 23
REMARK H PARENT 1 12 9 20 19 22 16 24
ROOT
ATOM      1  C   UNL     1      -1.150  -1.581  -1.143  1.00  0.00     0.130 C 
ATOM      2  C   UNL     1       0.068  -1.250  -1.569  1.00  0.00     0.069 C 
ATOM      3  C   UNL     1       0.624   0.137  -1.413  1.00  0.00     0.230 C 
ATOM      4  O   UNL     1      -0.317   1.150  -1.002  1.00  0.00    -0.480 OA
ATOM      5  C   UNL     1      -1.505   0.749  -0.450  1.00  0.00     0.139 A 
ATOM      6  C   UNL     1      -2.272   1.764   0.129  1.00  0.00     0.093 A 
ATOM      7  C   UNL     1      -3.481   1.448   0.739  1.00  0.00     0.123 A 
ATOM      8  C   UNL     1      -3.926   0.134   0.797  1.00  0.00     0.093 A 
ATOM      9  C   UNL     1      -3.150  -0.871   0.227  1.00  0.00     0.133 A 
ATOM     10  C   UNL     1      -1.952  -0.579  -0.444  1.00  0.00     0.100 A 
ENDROOT
BRANCH   1  11
ATOM     11  O   UNL     1      -1.684  -2.824  -1.391  1.00  0.00    -0.507 OA
ATOM     12  H   UNL     1      -2.645  -2.700  -1.533  1.00  0.00     0.293 HD
ENDBRANCH   1  11
BRANCH   3  13
ATOM     13  C   UNL     1       1.842   0.173  -0.503  1.00  0.00    -0.003 A 
ATOM     14  C   UNL     1       1.715   0.043   0.890  1.00  0.00     0.012 A 
ATOM     15  C   UNL     1       3.129   0.317  -1.050  1.00  0.00     0.012 A 
ATOM     16  C   UNL     1       2.843   0.064   1.713  1.00  0.00     0.046 A 
ATOM     17  C   UNL     1       4.258   0.338  -0.225  1.00  0.00     0.046 A 
ATOM     18  C   UNL     1       4.103   0.211   1.151  1.00  0.00     0.115 A 
BRANCH  18  19
ATOM     19  O   UNL     1       5.177   0.227   1.991  1.00  0.00    -0.508 OA
ATOM     20  H   UNL     1       5.983   0.337   1.462  1.00  0.00     0.293 HD
ENDBRANCH  18  19
ENDBRANCH   3  13
BRANCH   9  21
ATOM     21  O   UNL     1      -3.596  -2.159   0.374  1.00  0.00    -0.507 OA
ATOM     22  H   UNL     1      -2.802  -2.718   0.499  1.00  0.00     0.293 HD
ENDBRANCH   9  21
BRANCH   7  23
ATOM     23  O   UNL     1      -4.259   2.409   1.315  1.00  0.00    -0.508 OA
ATOM     24  H   UNL     1      -3.826   3.272   1.203  1.00  0.00     0.293 HD
ENDBRANCH   7  23
TORSDOF 5
