REMARK SMILES Cc1nc(=NCc2ccccc2)c2cc[nH]c2[nH]1
REMARK SMILES IDX 5 1 4 2 18 3 2 4 17 5 3 6 16 7 13 8 15 9 14 10 1 12 6 14
REMARK SMILES IDX 7 15 8 16 12 17 9 18 11 19 10 20
REMARK H PARENT 18 11 16 13
ROOT
ATOM      1  N   UNL     1       0.274   0.467   0.347  1.00  0.00    -0.261 NA
ENDROOT
BRANCH   1   2
ATOM      2  C   UNL     1      -0.972   0.172   0.402  1.00  0.00     0.160 A 
ATOM      3  N   UNL     1      -3.716  -0.253   0.730  1.00  0.00    -0.330 N 
ATOM      4  C   UNL     1      -2.995   0.686   1.446  1.00  0.00     0.106 A 
ATOM      5  C   UNL     1      -3.038  -0.990  -0.161  1.00  0.00     0.119 A 
ATOM      6  N   UNL     1      -1.719   0.904   1.314  1.00  0.00    -0.216 NA
ATOM      7  N   UNL     1      -3.552  -1.961  -0.957  1.00  0.00    -0.348 N 
ATOM      8  C   UNL     1      -1.688  -0.840  -0.378  1.00  0.00     0.061 A 
ATOM      9  C   UNL     1      -2.528  -2.470  -1.717  1.00  0.00     0.085 A 
ATOM     10  C   UNL     1      -1.367  -1.797  -1.380  1.00  0.00     0.033 A 
ATOM     11  H   UNL     1      -4.709  -0.347   0.905  1.00  0.00     0.169 HD
ATOM     12  C   UNL     1      -3.752   1.517   2.452  1.00  0.00     0.087 C 
ATOM     13  H   UNL     1      -4.516  -2.264  -0.990  1.00  0.00     0.167 HD
ENDBRANCH   1   2
BRANCH   1  14
ATOM     14  C   UNL     1       1.194  -0.205  -0.551  1.00  0.00     0.180 C 
BRANCH  14  15
ATOM     15  C   UNL     1       2.616   0.309  -0.431  1.00  0.00    -0.027 A 
ATOM     16  C   UNL     1       3.485   0.219  -1.530  1.00  0.00     0.005 A 
ATOM     17  C   UNL     1       3.113   0.815   0.778  1.00  0.00     0.005 A 
ATOM     18  C   UNL     1       4.810   0.649  -1.427  1.00  0.00     0.000 A 
ATOM     19  C   UNL     1       4.438   1.244   0.881  1.00  0.00     0.000 A 
ATOM     20  C   UNL     1       5.285   1.162  -0.222  1.00  0.00     0.000 A 
ENDBRANCH  14  15
ENDBRANCH   1  14
TORSDOF 3
