REMARK SMILES C[NH+]1CCC(=C(c2ccc(Cl)cc2)c2ccccn2)CC1
REMARK SMILES IDX 6 1 5 2 2 3 3 4 21 5 4 6 20 7 1 8 7 10 8 11 13 12 9 13 12 14
REMARK SMILES IDX 10 15 11 16 14 17 15 18 19 19 16 20 18 21 17 22
REMARK H PARENT 2 9
ROOT
ATOM      1  C   UNL     1       0.655  -0.797  -2.503  1.00  0.00     0.007 C 
ENDROOT
BRANCH   1   2
ATOM      2  C   UNL     1       0.833  -0.496  -1.188  1.00  0.00    -0.049 C 
ATOM      3  N   UNL     1       2.596  -0.088   1.091  1.00  0.00    -0.337 N 
ATOM      4  C   UNL     1       2.446   0.981   0.019  1.00  0.00     0.266 C 
ATOM      5  C   UNL     1       2.325  -1.487   0.544  1.00  0.00     0.266 C 
ATOM      6  C   UNL     1       1.058   0.902  -0.632  1.00  0.00     0.093 C 
ATOM      7  C   UNL     1       0.928  -1.525  -0.072  1.00  0.00     0.093 C 
ATOM      8  C   UNL     1       3.933  -0.012   1.769  1.00  0.00     0.332 C 
ATOM      9  H   UNL     1       1.883   0.098   1.808  1.00  0.00     0.347 HD
ENDBRANCH   1   2
BRANCH   1  10
ATOM     10  C   UNL     1       0.521   0.304  -3.489  1.00  0.00    -0.016 A 
ATOM     11  C   UNL     1       1.572   0.578  -4.376  1.00  0.00     0.010 A 
ATOM     12  C   UNL     1      -0.658   1.061  -3.562  1.00  0.00     0.010 A 
ATOM     13  C   UNL     1       1.452   1.608  -5.312  1.00  0.00     0.021 A 
ATOM     14  C   UNL     1      -0.775   2.091  -4.499  1.00  0.00     0.021 A 
ATOM     15  C   UNL     1       0.281   2.361  -5.367  1.00  0.00     0.041 A 
ATOM     16  Cl  UNL     1       0.137   3.633  -6.516  1.00  0.00    -0.084 Cl
ENDBRANCH   1  10
BRANCH   1  17
ATOM     17  C   UNL     1       0.701  -2.213  -2.967  1.00  0.00     0.071 A 
ATOM     18  C   UNL     1      -0.273  -2.717  -3.823  1.00  0.00     0.029 A 
ATOM     19  N   UNL     1       1.776  -2.940  -2.557  1.00  0.00    -0.256 NA
ATOM     20  C   UNL     1      -0.151  -4.029  -4.272  1.00  0.00     0.004 A 
ATOM     21  C   UNL     1       1.867  -4.208  -3.022  1.00  0.00     0.111 A 
ATOM     22  C   UNL     1       0.938  -4.791  -3.867  1.00  0.00     0.020 A 
ENDBRANCH   1  17
TORSDOF 3
