REMARK SMILES Cc1nc(NCc2ccccc2)c2cc[nH]c2n1
REMARK SMILES IDX 5 1 4 3 2 4 3 5 18 6 17 7 13 8 16 9 14 10 15 11 1 12 6 14
REMARK SMILES IDX 7 15 8 16 12 17 9 18 11 19 10 20
REMARK H PARENT 5 2 16 13
ROOT
ATOM      1  N   UNL     1       0.276  -0.345  -0.013  1.00  0.00    -0.365 N 
ATOM      2  H   UNL     1       0.602  -0.444  -0.967  1.00  0.00     0.162 HD
ENDROOT
BRANCH   1   3
ATOM      3  C   UNL     1      -1.115  -0.291   0.070  1.00  0.00     0.139 A 
ATOM      4  C   UNL     1      -3.069   0.333   1.203  1.00  0.00     0.130 A 
ATOM      5  N   UNL     1      -1.718   0.301   1.130  1.00  0.00    -0.216 NA
ATOM      6  N   UNL     1      -3.936  -0.153   0.294  1.00  0.00    -0.215 NA
ATOM      7  C   UNL     1      -3.306  -0.734  -0.735  1.00  0.00     0.143 A 
ATOM      8  C   UNL     1      -1.939  -0.849  -0.922  1.00  0.00     0.061 A 
ATOM      9  N   UNL     1      -3.935  -1.326  -1.796  1.00  0.00    -0.346 N 
ATOM     10  C   UNL     1      -1.754  -1.548  -2.151  1.00  0.00     0.033 A 
ATOM     11  C   UNL     1      -3.002  -1.827  -2.668  1.00  0.00     0.085 A 
ATOM     12  C   UNL     1      -3.659   1.024   2.394  1.00  0.00     0.090 C 
ATOM     13  H   UNL     1      -4.938  -1.378  -1.894  1.00  0.00     0.167 HD
ENDBRANCH   1   3
BRANCH   1  14
ATOM     14  C   UNL     1       0.983   0.659   0.760  1.00  0.00     0.150 C 
BRANCH  14  15
ATOM     15  C   UNL     1       2.460   0.570   0.447  1.00  0.00    -0.029 A 
ATOM     16  C   UNL     1       3.083   1.534  -0.357  1.00  0.00     0.005 A 
ATOM     17  C   UNL     1       3.222  -0.501   0.937  1.00  0.00     0.005 A 
ATOM     18  C   UNL     1       4.444   1.436  -0.652  1.00  0.00     0.000 A 
ATOM     19  C   UNL     1       4.582  -0.598   0.640  1.00  0.00     0.000 A 
ATOM     20  C   UNL     1       5.193   0.372  -0.153  1.00  0.00     0.000 A 
ENDBRANCH  14  15
ENDBRANCH   1  14
TORSDOF 3
