REMARK SMILES NC(=[NH2+])N/N=C/c1c(Cl)cccc1Cl
REMARK SMILES IDX 5 1 4 2 2 3 1 4 3 8 6 11 7 12 8 13 13 14 10 15 12 16 11 17
REMARK SMILES IDX 9 18 14 19
REMARK H PARENT 1 5 1 6 4 7 3 9 3 10
ROOT
ATOM      1  N   UNL     1      -0.980  -0.072  -0.002  1.00  0.00    -0.121 NA
ENDROOT
BRANCH   1   2
ATOM      2  N   UNL     1      -2.255   0.246   0.359  1.00  0.00    -0.157 N 
ATOM      3  C   UNL     1      -3.274  -0.377  -0.302  1.00  0.00     0.362 C 
ATOM      4  N   UNL     1      -4.549  -0.132   0.017  1.00  0.00    -0.289 N 
ATOM      5  H   UNL     1      -5.303  -0.593  -0.475  1.00  0.00     0.256 HD
ATOM      6  H   UNL     1      -4.800   0.511   0.755  1.00  0.00     0.256 HD
ATOM      7  H   UNL     1      -2.479   0.916   1.090  1.00  0.00     0.295 HD
BRANCH   3   8
ATOM      8  N   UNL     1      -2.996  -1.240  -1.283  1.00  0.00    -0.289 N 
ATOM      9  H   UNL     1      -2.011  -1.380  -1.495  1.00  0.00     0.256 HD
ATOM     10  H   UNL     1      -3.693  -1.736  -1.817  1.00  0.00     0.256 HD
ENDBRANCH   3   8
ENDBRANCH   1   2
BRANCH   1  11
ATOM     11  C   UNL     1      -0.046   0.605   0.592  1.00  0.00     0.161 C 
BRANCH  11  12
ATOM     12  C   UNL     1       1.398   0.384   0.336  1.00  0.00     0.033 A 
ATOM     13  C   UNL     1       2.320   0.717   1.345  1.00  0.00     0.051 A 
ATOM     14  C   UNL     1       1.884  -0.138  -0.876  1.00  0.00     0.051 A 
ATOM     15  C   UNL     1       3.692   0.526   1.148  1.00  0.00     0.021 A 
ATOM     16  C   UNL     1       3.260  -0.325  -1.062  1.00  0.00     0.021 A 
ATOM     17  C   UNL     1       4.162   0.005  -0.054  1.00  0.00     0.003 A 
ATOM     18  Cl  UNL     1       1.838   1.337   2.888  1.00  0.00    -0.084 Cl
ATOM     19  Cl  UNL     1       0.875  -0.538  -2.225  1.00  0.00    -0.084 Cl
ENDBRANCH  11  12
ENDBRANCH   1  11
TORSDOF 4
