ZINC000000001947
     RDKit          3D

 26 28  0  0  0  0  0  0  0  0999 V2000
    2.7073   -2.8617   -1.2506 Cl  0  0  0  0  0  0  0  0  0  0  0  0
    3.1310   -1.3681   -0.4857 C   0  0  0  0  0  0  0  0  0  0  0  0
    4.5020   -1.0903   -0.3830 C   0  0  0  0  0  0  0  0  0  0  0  0
    4.9428    0.1105    0.1712 C   0  0  0  0  0  0  0  0  0  0  0  0
    4.0158    1.0446    0.6189 C   0  0  0  0  0  0  0  0  0  0  0  0
    2.6495    0.7714    0.5193 C   0  0  0  0  0  0  0  0  0  0  0  0
    2.1808   -0.4427   -0.0221 C   0  0  0  0  0  0  0  0  0  0  0  0
    0.7372   -0.6421   -0.0736 C   0  0  0  0  0  0  0  0  0  0  0  0
   -0.2223    0.2538   -0.1665 N   0  0  0  0  0  0  0  0  0  0  0  0
   -1.3648   -0.5148   -0.0994 C   0  0  0  0  0  0  0  0  0  0  0  0
   -2.6980    0.0677   -0.1844 C   0  0  0  0  0  0  0  0  0  0  0  0
   -3.8422   -0.7298   -0.0944 C   0  0  0  0  0  0  0  0  0  0  0  0
   -5.0818   -0.1192   -0.1815 C   0  0  0  0  0  0  0  0  0  0  0  0
   -5.2535    1.2087   -0.3493 N   0  0  0  0  0  0  0  0  0  0  0  0
   -4.1369    1.9611   -0.4352 C   0  0  0  0  0  0  0  0  0  0  0  0
   -2.8546    1.4453   -0.3594 C   0  0  0  0  0  0  0  0  0  0  0  0
   -1.1281   -1.8267    0.0593 N   0  0  0  0  0  0  0  0  0  0  0  0
    0.2620   -1.9104    0.0885 O   0  0  0  0  0  0  0  0  0  0  0  0
    5.2354   -1.8084   -0.7444 H   0  0  0  0  0  0  0  0  0  0  0  0
    6.0077    0.3183    0.2451 H   0  0  0  0  0  0  0  0  0  0  0  0
    4.3523    1.9868    1.0456 H   0  0  0  0  0  0  0  0  0  0  0  0
    1.9395    1.5176    0.8764 H   0  0  0  0  0  0  0  0  0  0  0  0
   -3.7797   -1.8050    0.0405 H   0  0  0  0  0  0  0  0  0  0  0  0
   -5.9974   -0.7004   -0.1167 H   0  0  0  0  0  0  0  0  0  0  0  0
   -4.3049    3.0258   -0.5714 H   0  0  0  0  0  0  0  0  0  0  0  0
   -1.9989    2.1083   -0.4370 H   0  0  0  0  0  0  0  0  0  0  0  0
  1  2  1  0
  2  3  2  0
  3  4  1  0
  4  5  2  0
  5  6  1  0
  6  7  2  0
  7  8  1  0
  8  9  2  0
  9 10  1  0
 10 11  1  0
 11 12  2  0
 12 13  1  0
 13 14  2  0
 14 15  1  0
 15 16  2  0
 10 17  2  0
 17 18  1  0
  7  2  1  0
 18  8  1  0
 16 11  1  0
  3 19  1  0
  4 20  1  0
  5 21  1  0
  6 22  1  0
 12 23  1  0
 13 24  1  0
 15 25  1  0
 16 26  1  0
M  END
>  <ScrubInfo>  (1) 
{"isomerGroup": 0, "isomerId": 0, "confId": 0, "nr_conformers:": 1, "nr_isomers:": 1}

$$$$
ZINC000000001522_i0
     RDKit          3D

 23 23  0  0  0  0  0  0  0  0999 V2000
   -2.9960   -1.2405   -1.2833 N   0  0  0  0  0  0  0  0  0  0  0  0
   -3.2737   -0.3773   -0.3023 C   0  0  0  0  0  0  0  0  0  0  0  0
   -4.5493   -0.1317    0.0169 N   0  0  0  0  0  0  0  0  0  0  0  0
   -2.2551    0.2458    0.3593 N   0  0  0  0  0  0  0  0  0  0  0  0
   -0.9801   -0.0717   -0.0016 N   0  0  0  0  0  0  0  0  0  0  0  0
   -0.0459    0.6047    0.5924 C   0  0  0  0  0  0  0  0  0  0  0  0
    1.3980    0.3838    0.3363 C   0  0  0  0  0  0  0  0  0  0  0  0
    2.3202    0.7165    1.3455 C   0  0  0  0  0  0  0  0  0  0  0  0
    1.8839   -0.1377   -0.8764 C   0  0  0  0  0  0  0  0  0  0  0  0
    1.8376    1.3375    2.8879 Cl  0  0  0  0  0  0  0  0  0  0  0  0
    3.6925    0.5261    1.1481 C   0  0  0  0  0  0  0  0  0  0  0  0
    3.2602   -0.3250   -1.0624 C   0  0  0  0  0  0  0  0  0  0  0  0
    0.8747   -0.5383   -2.2255 Cl  0  0  0  0  0  0  0  0  0  0  0  0
    4.1621    0.0048   -0.0538 C   0  0  0  0  0  0  0  0  0  0  0  0
   -2.0112   -1.3804   -1.4954 H   0  0  0  0  0  0  0  0  0  0  0  0
   -3.6930   -1.7356   -1.8165 H   0  0  0  0  0  0  0  0  0  0  0  0
   -5.3034   -0.5931   -0.4751 H   0  0  0  0  0  0  0  0  0  0  0  0
   -4.8004    0.5115    0.7554 H   0  0  0  0  0  0  0  0  0  0  0  0
   -2.4790    0.9158    1.0896 H   0  0  0  0  0  0  0  0  0  0  0  0
   -0.3188    1.3723    1.3361 H   0  0  0  0  0  0  0  0  0  0  0  0
    4.4051    0.7787    1.9321 H   0  0  0  0  0  0  0  0  0  0  0  0
    3.6417   -0.7239   -2.0017 H   0  0  0  0  0  0  0  0  0  0  0  0
    5.2302   -0.1423   -0.2057 H   0  0  0  0  0  0  0  0  0  0  0  0
  1  2  2  0
  2  3  1  0
  2  4  1  0
  4  5  1  0
  5  6  2  0
  6  7  1  0
  7  8  2  0
  9  7  1  0
  8 10  1  0
  8 11  1  0
 12  9  2  0
  9 13  1  0
 11 14  2  0
 14 12  1  0
  1 15  1  0
  1 16  1  0
  3 17  1  0
  3 18  1  0
  4 19  1  0
  6 20  1  0
 11 21  1  0
 12 22  1  0
 14 23  1  0
M  CHG  1   1   1
M  END
>  <ScrubInfo>  (2) 
{"isomerGroup": 1, "isomerId": 0, "confId": 0, "nr_conformers:": 1, "nr_isomers:": 3}

$$$$
ZINC000000001522_i1
     RDKit          3D

 23 23  0  0  0  0  0  0  0  0999 V2000
    0.0612   -0.9771    0.8071 C   0  0  0  0  0  0  0  0  0  0  0  0
    1.1038   -0.1628    0.1533 N   0  0  0  0  0  0  0  0  0  0  0  0
    2.2589   -0.5609    0.4212 N   0  0  0  0  0  0  0  0  0  0  0  0
    3.2705    0.1459   -0.1496 C   0  0  0  0  0  0  0  0  0  0  0  0
    4.5144   -0.2047    0.0792 N   0  0  0  0  0  0  0  0  0  0  0  0
    3.0461    1.1785   -0.9306 N   0  0  0  0  0  4  0  0  0  0  0  0
   -1.3151   -0.4647    0.4589 C   0  0  0  0  0  0  0  0  0  0  0  0
   -1.9397    0.5309    1.2336 C   0  0  0  0  0  0  0  0  0  0  0  0
   -1.1574    1.2466    2.6008 Cl  0  0  0  0  0  0  0  0  0  0  0  0
   -3.2161    1.0044    0.9106 C   0  0  0  0  0  0  0  0  0  0  0  0
   -3.8875    0.5065   -0.2022 C   0  0  0  0  0  0  0  0  0  0  0  0
   -3.2755   -0.4545   -1.0014 C   0  0  0  0  0  0  0  0  0  0  0  0
   -1.9992   -0.9294   -0.6802 C   0  0  0  0  0  0  0  0  0  0  0  0
   -1.2930   -2.0814   -1.7607 Cl  0  0  0  0  0  0  0  0  0  0  0  0
    0.1677   -2.0293    0.5166 H   0  0  0  0  0  0  0  0  0  0  0  0
    0.2106   -0.9785    1.8937 H   0  0  0  0  0  0  0  0  0  0  0  0
    5.3072    0.2783   -0.3140 H   0  0  0  0  0  0  0  0  0  0  0  0
    4.6753   -1.0023    0.6828 H   0  0  0  0  0  0  0  0  0  0  0  0
    2.0723    1.4189   -1.0837 H   0  0  0  0  0  0  0  0  0  0  0  0
    3.7698    1.7244   -1.3696 H   0  0  0  0  0  0  0  0  0  0  0  0
   -3.6937    1.7670    1.5233 H   0  0  0  0  0  0  0  0  0  0  0  0
   -4.8812    0.8732   -0.4510 H   0  0  0  0  0  0  0  0  0  0  0  0
   -3.7995   -0.8291   -1.8790 H   0  0  0  0  0  0  0  0  0  0  0  0
  1  2  1  0
  2  3  2  3
  3  4  1  0
  4  5  1  0
  4  6  2  0
  1  7  1  0
  7  8  2  0
  8  9  1  0
  8 10  1  0
 10 11  2  0
 11 12  1  0
 12 13  2  0
 13 14  1  0
 13  7  1  0
  1 15  1  0
  1 16  1  0
  5 17  1  0
  5 18  1  0
  6 19  1  0
  6 20  1  0
 10 21  1  0
 11 22  1  0
 12 23  1  0
M  CHG  1   6   1
M  END
>  <ScrubInfo>  (3) 
{"isomerGroup": 1, "isomerId": 1, "confId": 0, "nr_conformers:": 1, "nr_isomers:": 3}

$$$$
ZINC000000001522_i2
     RDKit          3D

 23 23  0  0  0  0  0  0  0  0999 V2000
   -2.1361   -0.0396   -0.7795 N   0  0  0  0  0  0  0  0  0  0  0  0
   -0.9700    0.0618   -0.0820 N   0  0  0  0  0  0  0  0  0  0  0  0
    0.0962   -0.3170   -0.7170 C   0  0  0  0  0  0  0  0  0  0  0  0
    1.4490   -0.2912   -0.1102 C   0  0  0  0  0  0  0  0  0  0  0  0
    2.4238   -1.1806   -0.5986 C   0  0  0  0  0  0  0  0  0  0  0  0
    2.0994   -2.3297   -1.8524 Cl  0  0  0  0  0  0  0  0  0  0  0  0
    3.7142   -1.1913   -0.0572 C   0  0  0  0  0  0  0  0  0  0  0  0
    4.0493   -0.3182    0.9733 C   0  0  0  0  0  0  0  0  0  0  0  0
    3.0950    0.5700    1.4633 C   0  0  0  0  0  0  0  0  0  0  0  0
    1.8000    0.5904    0.9281 C   0  0  0  0  0  0  0  0  0  0  0  0
    0.7247    1.7759    1.5895 Cl  0  0  0  0  0  0  0  0  0  0  0  0
   -3.2719    0.4288   -0.1846 C   0  0  0  0  0  0  0  0  0  0  0  0
   -4.4554    0.3392   -0.8015 N   0  0  0  0  0  0  0  0  0  0  0  0
   -3.2029    0.9874    1.0270 N   0  0  0  0  0  4  0  0  0  0  0  0
   -2.1979   -0.4436   -1.7097 H   0  0  0  0  0  0  0  0  0  0  0  0
    0.0094   -0.6925   -1.7505 H   0  0  0  0  0  0  0  0  0  0  0  0
    4.4664   -1.8841   -0.4322 H   0  0  0  0  0  0  0  0  0  0  0  0
    5.0539   -0.3278    1.3931 H   0  0  0  0  0  0  0  0  0  0  0  0
    3.3729    1.2542    2.2642 H   0  0  0  0  0  0  0  0  0  0  0  0
   -4.5499   -0.0800   -1.7166 H   0  0  0  0  0  0  0  0  0  0  0  0
   -5.2963    0.6880   -0.3601 H   0  0  0  0  0  0  0  0  0  0  0  0
   -2.2776    1.0435    1.4456 H   0  0  0  0  0  0  0  0  0  0  0  0
   -3.9961    1.3565    1.5268 H   0  0  0  0  0  0  0  0  0  0  0  0
  1  2  1  0
  2  3  2  3
  3  4  1  0
  4  5  2  0
  5  6  1  0
  5  7  1  0
  7  8  2  0
  8  9  1  0
  9 10  2  0
 10 11  1  0
  1 12  1  0
 12 13  1  0
 12 14  2  0
 10  4  1  0
  1 15  1  0
  3 16  1  0
  7 17  1  0
  8 18  1  0
  9 19  1  0
 13 20  1  0
 13 21  1  0
 14 22  1  0
 14 23  1  0
M  CHG  1  14   1
M  END
>  <ScrubInfo>  (4) 
{"isomerGroup": 1, "isomerId": 2, "confId": 0, "nr_conformers:": 1, "nr_isomers:": 3}

$$$$
ZINC000000001228
     RDKit          3D

 41 43  0  0  0  0  0  0  0  0999 V2000
    3.9327   -0.0116    1.7686 C   0  0  0  0  0  0  0  0  0  0  0  0
    2.5959   -0.0881    1.0914 N   0  0  0  0  0  4  0  0  0  0  0  0
    2.4457    0.9810    0.0190 C   0  0  0  0  0  0  0  0  0  0  0  0
    2.3251   -1.4868    0.5442 C   0  0  0  0  0  0  0  0  0  0  0  0
    1.0579    0.9016   -0.6325 C   0  0  0  0  0  0  0  0  0  0  0  0
    0.8326   -0.4961   -1.1883 C   0  0  0  0  0  0  0  0  0  0  0  0
    0.6546   -0.7969   -2.5029 C   0  0  0  0  0  0  0  0  0  0  0  0
    0.9277   -1.5250   -0.0716 C   0  0  0  0  0  0  0  0  0  0  0  0
    0.5210    0.3041   -3.4893 C   0  0  0  0  0  0  0  0  0  0  0  0
    0.7010   -2.2126   -2.9666 C   0  0  0  0  0  0  0  0  0  0  0  0
    1.5718    0.5781   -4.3757 C   0  0  0  0  0  0  0  0  0  0  0  0
   -0.6581    1.0609   -3.5624 C   0  0  0  0  0  0  0  0  0  0  0  0
   -0.2729   -2.7175   -3.8227 C   0  0  0  0  0  0  0  0  0  0  0  0
    1.7760   -2.9399   -2.5573 N   0  0  0  0  0  0  0  0  0  0  0  0
    1.4519    1.6082   -5.3118 C   0  0  0  0  0  0  0  0  0  0  0  0
   -0.7755    2.0908   -4.4990 C   0  0  0  0  0  0  0  0  0  0  0  0
   -0.1514   -4.0293   -4.2722 C   0  0  0  0  0  0  0  0  0  0  0  0
    1.8670   -4.2079   -3.0221 C   0  0  0  0  0  0  0  0  0  0  0  0
    0.2806    2.3614   -5.3674 C   0  0  0  0  0  0  0  0  0  0  0  0
    0.9380   -4.7906   -3.8674 C   0  0  0  0  0  0  0  0  0  0  0  0
    0.1368    3.6327   -6.5158 Cl  0  0  0  0  0  0  0  0  0  0  0  0
    4.7126   -0.2106    1.0288 H   0  0  0  0  0  0  0  0  0  0  0  0
    3.9510   -0.7574    2.5676 H   0  0  0  0  0  0  0  0  0  0  0  0
    4.0409    0.9902    2.1922 H   0  0  0  0  0  0  0  0  0  0  0  0
    1.8825    0.0978    1.8080 H   0  0  0  0  0  0  0  0  0  0  0  0
    3.2462    0.8247   -0.7135 H   0  0  0  0  0  0  0  0  0  0  0  0
    2.5831    1.9495    0.5111 H   0  0  0  0  0  0  0  0  0  0  0  0
    3.1112   -1.7142   -0.1845 H   0  0  0  0  0  0  0  0  0  0  0  0
    2.3929   -2.1779    1.3906 H   0  0  0  0  0  0  0  0  0  0  0  0
    0.9963    1.6869   -1.3900 H   0  0  0  0  0  0  0  0  0  0  0  0
    0.2795    1.1243    0.1080 H   0  0  0  0  0  0  0  0  0  0  0  0
    0.1777   -1.2809    0.6928 H   0  0  0  0  0  0  0  0  0  0  0  0
    0.6874   -2.5433   -0.3860 H   0  0  0  0  0  0  0  0  0  0  0  0
    2.4854   -0.0131   -4.3507 H   0  0  0  0  0  0  0  0  0  0  0  0
   -1.4932    0.8511   -2.8975 H   0  0  0  0  0  0  0  0  0  0  0  0
   -1.1118   -2.1094   -4.1455 H   0  0  0  0  0  0  0  0  0  0  0  0
    2.2695    1.8128   -5.9990 H   0  0  0  0  0  0  0  0  0  0  0  0
   -1.6923    2.6732   -4.5518 H   0  0  0  0  0  0  0  0  0  0  0  0
   -0.8965   -4.4506   -4.9426 H   0  0  0  0  0  0  0  0  0  0  0  0
    2.7386   -4.7658   -2.6905 H   0  0  0  0  0  0  0  0  0  0  0  0
    1.0628   -5.8126   -4.2101 H   0  0  0  0  0  0  0  0  0  0  0  0
  1  2  1  0
  2  3  1  0
  2  4  1  0
  3  5  1  0
  5  6  1  0
  6  7  2  3
  6  8  1  0
  7  9  1  0
  7 10  1  0
  8  4  1  0
  9 11  2  0
 12  9  1  0
 10 13  2  0
 14 10  1  0
 11 15  1  0
 16 12  2  0
 13 17  1  0
 18 14  2  0
 15 19  2  0
 19 16  1  0
 17 20  2  0
 20 18  1  0
 19 21  1  0
  1 22  1  0
  1 23  1  0
  1 24  1  0
  2 25  1  0
  3 26  1  0
  3 27  1  0
  4 28  1  0
  4 29  1  0
  5 30  1  0
  5 31  1  0
  8 32  1  0
  8 33  1  0
 11 34  1  0
 12 35  1  0
 13 36  1  0
 15 37  1  0
 16 38  1  0
 17 39  1  0
 18 40  1  0
 20 41  1  0
M  CHG  1   2   1
M  END
>  <ScrubInfo>  (5) 
{"isomerGroup": 2, "isomerId": 0, "confId": 0, "nr_conformers:": 1, "nr_isomers:": 1}

$$$$
ZINC000000005155
     RDKit          3D

 28 30  0  0  0  0  0  0  0  0999 V2000
   -2.6754    2.9500    1.4243 O   0  0  0  0  0  0  0  0  0  0  0  0
   -2.0559    2.1485    0.7238 C   0  0  0  0  0  0  0  0  0  0  0  0
   -0.9566    2.5781   -0.2336 C   0  0  0  0  0  0  0  0  0  0  0  0
    0.3187    1.9877    0.1542 N   0  0  0  0  0  0  0  0  0  0  0  0
    0.4762    0.7124    0.0391 C   0  0  0  0  0  0  0  0  0  0  0  0
    1.7647    0.2091    0.4966 C   0  0  0  0  0  0  0  0  0  0  0  0
    2.2108   -1.0676    0.8051 C   0  0  0  0  0  0  0  0  0  0  0  0
    3.5647   -0.9794    1.2142 C   0  0  0  0  0  0  0  0  0  0  0  0
    3.9164    0.3484    1.1744 C   0  0  0  0  0  0  0  0  0  0  0  0
    2.8221    1.0576    0.7635 N   0  0  0  0  0  0  0  0  0  0  0  0
   -0.5447   -0.2393   -0.4871 C   0  0  0  0  0  0  0  0  0  0  0  0
   -0.1279   -1.2523   -1.3665 C   0  0  0  0  0  0  0  0  0  0  0  0
   -1.0118   -2.2612   -1.7393 C   0  0  0  0  0  0  0  0  0  0  0  0
   -0.4869   -3.5095   -2.7987 Cl  0  0  0  0  0  0  0  0  0  0  0  0
   -2.3110   -2.2773   -1.2424 C   0  0  0  0  0  0  0  0  0  0  0  0
   -2.7423   -1.2525   -0.3974 C   0  0  0  0  0  0  0  0  0  0  0  0
   -1.8798   -0.2025   -0.0520 C   0  0  0  0  0  0  0  0  0  0  0  0
   -2.4346    0.8307    0.7173 N   0  0  0  0  0  0  0  0  0  0  0  0
   -1.2318    2.3425   -1.2681 H   0  0  0  0  0  0  0  0  0  0  0  0
   -0.8654    3.6683   -0.1742 H   0  0  0  0  0  0  0  0  0  0  0  0
    1.6300   -1.9796    0.7548 H   0  0  0  0  0  0  0  0  0  0  0  0
    4.2073   -1.7957    1.5184 H   0  0  0  0  0  0  0  0  0  0  0  0
    4.8430    0.8511    1.4171 H   0  0  0  0  0  0  0  0  0  0  0  0
    2.7578    2.0638    0.6652 H   0  0  0  0  0  0  0  0  0  0  0  0
    0.8920   -1.2673   -1.7453 H   0  0  0  0  0  0  0  0  0  0  0  0
   -2.9979   -3.0732   -1.5205 H   0  0  0  0  0  0  0  0  0  0  0  0
   -3.7725   -1.2648   -0.0470 H   0  0  0  0  0  0  0  0  0  0  0  0
   -3.3092    0.6740    1.2040 H   0  0  0  0  0  0  0  0  0  0  0  0
  1  2  2  0
  2  3  1  0
  3  4  1  0
  4  5  2  0
  5  6  1  0
  6  7  2  0
  7  8  1  0
  8  9  2  0
  9 10  1  0
  5 11  1  0
 11 12  2  0
 12 13  1  0
 13 14  1  0
 13 15  2  0
 15 16  1  0
 16 17  2  0
 17 18  1  0
 18  2  1  0
 10  6  1  0
 17 11  1  0
  3 19  1  0
  3 20  1  0
  7 21  1  0
  8 22  1  0
  9 23  1  0
 10 24  1  0
 12 25  1  0
 15 26  1  0
 16 27  1  0
 18 28  1  0
M  END
>  <ScrubInfo>  (6) 
{"isomerGroup": 3, "isomerId": 0, "confId": 0, "nr_conformers:": 1, "nr_isomers:": 1}

$$$$
1A-116
     RDKit          3D

 39 40  0  0  0  0  0  0  0  0999 V2000
    1.1407   -0.3054    0.6053 N   0  0  0  0  0  0  0  0  0  0  0  0
    0.4919   -0.1617    1.7897 C   0  0  0  0  0  0  0  0  0  0  0  0
   -0.8587   -0.2307    1.8784 N   0  0  0  0  0  0  0  0  0  0  0  0
    1.1570    0.0601    2.9405 N   0  0  0  0  0  0  0  0  0  0  0  0
    2.5416   -0.5008    0.4078 C   0  0  0  0  0  0  0  0  0  0  0  0
    3.3123   -1.2111    1.3371 C   0  0  0  0  0  0  0  0  0  0  0  0
    3.1425   -0.0541   -0.7808 C   0  0  0  0  0  0  0  0  0  0  0  0
    4.6762   -1.4214    1.1225 C   0  0  0  0  0  0  0  0  0  0  0  0
    4.5194   -0.2628   -0.9820 C   0  0  0  0  0  0  0  0  0  0  0  0
    2.3509    0.7017   -1.8086 C   0  0  0  0  0  0  0  0  0  0  0  0
    5.2814   -0.9389   -0.0322 C   0  0  0  0  0  0  0  0  0  0  0  0
    2.1580    2.0001   -1.4507 F   0  0  0  0  0  0  0  0  0  0  0  0
    2.9077    0.7173   -3.0454 F   0  0  0  0  0  0  0  0  0  0  0  0
    1.0962    0.1822   -1.9633 F   0  0  0  0  0  0  0  0  0  0  0  0
   -1.7800    0.0153    0.8237 C   0  0  0  0  0  0  0  0  0  0  0  0
   -3.0168   -0.6294    0.8837 C   0  0  0  0  0  0  0  0  0  0  0  0
   -1.5237    0.9259   -0.2036 C   0  0  0  0  0  0  0  0  0  0  0  0
   -3.9834   -0.4092   -0.1053 C   0  0  0  0  0  0  0  0  0  0  0  0
   -2.4654    1.1344   -1.2193 C   0  0  0  0  0  0  0  0  0  0  0  0
   -3.6918    0.4617   -1.1619 C   0  0  0  0  0  0  0  0  0  0  0  0
   -5.2953   -1.1394   -0.0678 C   0  0  0  0  0  0  0  0  0  0  0  0
   -2.1970    2.1239   -2.3172 C   0  0  0  0  0  0  0  0  0  0  0  0
    0.5572   -0.3330   -0.2296 H   0  0  0  0  0  0  0  0  0  0  0  0
   -1.2476   -0.5437    2.7602 H   0  0  0  0  0  0  0  0  0  0  0  0
    0.6637    0.2041    3.8119 H   0  0  0  0  0  0  0  0  0  0  0  0
    2.1420    0.2920    2.9334 H   0  0  0  0  0  0  0  0  0  0  0  0
    2.8666   -1.6685    2.2162 H   0  0  0  0  0  0  0  0  0  0  0  0
    5.2664   -1.9814    1.8464 H   0  0  0  0  0  0  0  0  0  0  0  0
    5.0063    0.0992   -1.8888 H   0  0  0  0  0  0  0  0  0  0  0  0
    6.3445   -1.1046   -0.2025 H   0  0  0  0  0  0  0  0  0  0  0  0
   -3.2360   -1.3235    1.6912 H   0  0  0  0  0  0  0  0  0  0  0  0
   -0.6141    1.5202   -0.2157 H   0  0  0  0  0  0  0  0  0  0  0  0
   -4.4357    0.6301   -1.9413 H   0  0  0  0  0  0  0  0  0  0  0  0
   -5.2132   -2.0832   -0.6155 H   0  0  0  0  0  0  0  0  0  0  0  0
   -5.5937   -1.3532    0.9639 H   0  0  0  0  0  0  0  0  0  0  0  0
   -6.0909   -0.5359   -0.5172 H   0  0  0  0  0  0  0  0  0  0  0  0
   -2.5456    3.1172   -2.0187 H   0  0  0  0  0  0  0  0  0  0  0  0
   -1.1261    2.1759   -2.5408 H   0  0  0  0  0  0  0  0  0  0  0  0
   -2.7073    1.8307   -3.2406 H   0  0  0  0  0  0  0  0  0  0  0  0
  1  2  2  3
  2  3  1  0
  2  4  1  0
  1  5  1  0
  5  6  2  0
  7  5  1  0
  6  8  1  0
  9  7  2  0
  7 10  1  0
  8 11  2  0
 11  9  1  0
 10 12  1  0
 10 13  1  0
 10 14  1  0
 15  3  1  0
 16 15  2  0
 15 17  1  0
 18 16  1  0
 17 19  2  0
 20 18  2  0
 18 21  1  0
 22 19  1  0
 19 20  1  0
  1 23  1  0
  3 24  1  0
  4 25  1  0
  4 26  1  0
  6 27  1  0
  8 28  1  0
  9 29  1  0
 11 30  1  0
 16 31  1  0
 17 32  1  0
 20 33  1  0
 21 34  1  0
 21 35  1  0
 21 36  1  0
 22 37  1  0
 22 38  1  0
 22 39  1  0
M  CHG  1   1   1
M  END
>  <ScrubInfo>  (7) 
{"isomerGroup": 4, "isomerId": 0, "confId": 0, "nr_conformers:": 1, "nr_isomers:": 1}

$$$$
ZINC000000001791_i0
     RDKit          3D

 39 41  0  0  0  0  0  0  0  0999 V2000
   -4.4766   -2.0974   -0.4741 C   0  0  0  0  0  0  0  0  0  0  0  0
   -3.3993   -2.5654    0.4862 C   0  0  0  0  0  0  0  0  0  0  0  0
   -2.1679   -1.8770    0.2212 O   0  0  0  0  0  0  0  0  0  0  0  0
   -2.0191   -0.6789    0.8428 C   0  0  0  0  0  0  0  0  0  0  0  0
   -2.8205   -0.1480    1.5911 O   0  0  0  0  0  0  0  0  0  0  0  0
   -0.7183   -0.0922    0.4412 C   0  0  0  0  0  0  0  0  0  0  0  0
    0.3986   -0.9347    0.4236 C   0  0  0  0  0  0  0  0  0  0  0  0
    1.6287   -0.4070    0.0720 C   0  0  0  0  0  0  0  0  0  0  0  0
    2.8672   -1.2122    0.0208 C   0  0  0  0  0  0  0  0  0  0  0  0
    4.1135   -0.6305    0.3211 C   0  0  0  0  0  0  0  0  0  0  0  0
    5.2965   -1.3748    0.2857 C   0  0  0  0  0  0  0  0  0  0  0  0
    5.2602   -2.7223   -0.0579 C   0  0  0  0  0  0  0  0  0  0  0  0
    4.0441   -3.3224   -0.3701 C   0  0  0  0  0  0  0  0  0  0  0  0
    2.8618   -2.5748   -0.3329 C   0  0  0  0  0  0  0  0  0  0  0  0
    1.7661    0.9049   -0.2358 N   0  0  0  0  0  0  0  0  0  0  0  0
    0.6961    1.7167   -0.2195 C   0  0  0  0  0  0  0  0  0  0  0  0
    0.8875    3.0483   -0.5591 C   0  0  0  0  0  0  0  0  0  0  0  0
   -0.1634    3.9684   -0.5793 C   0  0  0  0  0  0  0  0  0  0  0  0
   -1.4506    3.5613   -0.2431 C   0  0  0  0  0  0  0  0  0  0  0  0
   -2.5983    4.5253   -0.2905 C   0  0  0  0  0  0  0  0  0  0  0  0
   -1.6627    2.2178    0.0874 C   0  0  0  0  0  0  0  0  0  0  0  0
   -0.5970    1.2779    0.1154 C   0  0  0  0  0  0  0  0  0  0  0  0
   -4.1514   -2.2308   -1.5111 H   0  0  0  0  0  0  0  0  0  0  0  0
   -4.6857   -1.0313   -0.3408 H   0  0  0  0  0  0  0  0  0  0  0  0
   -5.4034   -2.6571   -0.3198 H   0  0  0  0  0  0  0  0  0  0  0  0
   -3.2081   -3.6327    0.3339 H   0  0  0  0  0  0  0  0  0  0  0  0
   -3.7094   -2.4394    1.5300 H   0  0  0  0  0  0  0  0  0  0  0  0
    0.3023   -1.9780    0.7052 H   0  0  0  0  0  0  0  0  0  0  0  0
    4.1664    0.4238    0.5904 H   0  0  0  0  0  0  0  0  0  0  0  0
    6.2430   -0.8970    0.5242 H   0  0  0  0  0  0  0  0  0  0  0  0
    6.1791   -3.3016   -0.0889 H   0  0  0  0  0  0  0  0  0  0  0  0
    4.0134   -4.3723   -0.6502 H   0  0  0  0  0  0  0  0  0  0  0  0
    1.9345   -3.0733   -0.6060 H   0  0  0  0  0  0  0  0  0  0  0  0
    1.8890    3.3823   -0.8224 H   0  0  0  0  0  0  0  0  0  0  0  0
    0.0379    4.9999   -0.8593 H   0  0  0  0  0  0  0  0  0  0  0  0
   -2.2588    5.5486   -0.0983 H   0  0  0  0  0  0  0  0  0  0  0  0
   -3.3432    4.2818    0.4743 H   0  0  0  0  0  0  0  0  0  0  0  0
   -3.0753    4.4910   -1.2747 H   0  0  0  0  0  0  0  0  0  0  0  0
   -2.6768    1.9034    0.3302 H   0  0  0  0  0  0  0  0  0  0  0  0
  1  2  1  0
  2  3  1  0
  3  4  1  0
  4  5  2  0
  4  6  1  0
  6  7  2  0
  7  8  1  0
  8  9  1  0
  9 10  2  0
 10 11  1  0
 11 12  2  0
 12 13  1  0
 13 14  2  0
  8 15  2  0
 15 16  1  0
 16 17  2  0
 17 18  1  0
 18 19  2  0
 19 20  1  0
 19 21  1  0
 21 22  2  0
 22  6  1  0
 14  9  1  0
 22 16  1  0
  1 23  1  0
  1 24  1  0
  1 25  1  0
  2 26  1  0
  2 27  1  0
  7 28  1  0
 10 29  1  0
 11 30  1  0
 12 31  1  0
 13 32  1  0
 14 33  1  0
 17 34  1  0
 18 35  1  0
 20 36  1  0
 20 37  1  0
 20 38  1  0
 21 39  1  0
M  END
>  <ScrubInfo>  (8) 
{"isomerGroup": 5, "isomerId": 0, "confId": 0, "nr_conformers:": 1, "nr_isomers:": 2}

$$$$
ZINC000000001791_i1
     RDKit          3D

 39 41  0  0  0  0  0  0  0  0999 V2000
   -3.3090    1.0614   -0.6366 O   0  0  0  0  0  0  0  0  0  0  0  0
   -2.2968    0.1429   -0.5067 C   0  0  0  0  0  0  0  0  0  0  0  0
   -2.6767   -1.1759   -0.6834 O   0  0  0  0  0  0  0  0  0  0  0  0
   -3.3375   -1.6622    0.4912 C   0  0  0  0  0  0  0  0  0  0  0  0
   -3.6276   -3.1375    0.2895 C   0  0  0  0  0  0  0  0  0  0  0  0
   -0.9988    0.4888   -0.3096 C   0  0  0  0  0  0  0  0  0  0  0  0
    0.0052   -0.5820   -0.2820 C   0  0  0  0  0  0  0  0  0  0  0  0
    1.3152   -0.3186   -0.1199 C   0  0  0  0  0  0  0  0  0  0  0  0
    2.2819   -1.4445   -0.1199 C   0  0  0  0  0  0  0  0  0  0  0  0
    3.4497   -1.3580   -0.8926 C   0  0  0  0  0  0  0  0  0  0  0  0
    4.3783   -2.4016   -0.9060 C   0  0  0  0  0  0  0  0  0  0  0  0
    4.1551   -3.5428   -0.1385 C   0  0  0  0  0  0  0  0  0  0  0  0
    3.0080   -3.6386    0.6468 C   0  0  0  0  0  0  0  0  0  0  0  0
    2.0789   -2.5945    0.6595 C   0  0  0  0  0  0  0  0  0  0  0  0
    1.8384    0.9477    0.0093 N   0  0  0  0  0  0  0  0  0  0  0  0
    1.0177    1.9579    0.0089 C   0  0  0  0  0  0  0  0  0  0  0  0
    1.6220    3.3120    0.1636 C   0  0  0  0  0  0  0  0  0  0  0  0
    0.8619    4.4107    0.2130 C   0  0  0  0  0  0  0  0  0  0  0  0
   -0.5777    4.3081    0.1144 C   0  0  0  0  0  0  0  0  0  0  0  0
   -1.3339    5.4154    0.1806 C   0  0  0  0  0  0  0  0  0  0  0  0
   -1.2017    3.0057   -0.0626 C   0  0  0  0  0  0  0  0  0  0  0  0
   -0.4913    1.8630   -0.1310 C   0  0  0  0  0  0  0  0  0  0  0  0
   -4.0289    0.5636   -1.0622 H   0  0  0  0  0  0  0  0  0  0  0  0
   -2.6959   -1.5338    1.3716 H   0  0  0  0  0  0  0  0  0  0  0  0
   -4.2783   -1.1213    0.6468 H   0  0  0  0  0  0  0  0  0  0  0  0
   -4.1351   -3.5582    1.1621 H   0  0  0  0  0  0  0  0  0  0  0  0
   -4.2572   -3.2895   -0.5934 H   0  0  0  0  0  0  0  0  0  0  0  0
   -2.6991   -3.6925    0.1186 H   0  0  0  0  0  0  0  0  0  0  0  0
   -0.3294   -1.6051   -0.4237 H   0  0  0  0  0  0  0  0  0  0  0  0
    3.6377   -0.4680   -1.4899 H   0  0  0  0  0  0  0  0  0  0  0  0
    5.2762   -2.3183   -1.5123 H   0  0  0  0  0  0  0  0  0  0  0  0
    4.8792   -4.3530   -0.1462 H   0  0  0  0  0  0  0  0  0  0  0  0
    2.8389   -4.5225    1.2560 H   0  0  0  0  0  0  0  0  0  0  0  0
    1.2013   -2.6797    1.2955 H   0  0  0  0  0  0  0  0  0  0  0  0
    2.7018    3.3554    0.2407 H   0  0  0  0  0  0  0  0  0  0  0  0
    1.3243    5.3856    0.3303 H   0  0  0  0  0  0  0  0  0  0  0  0
   -0.8981    6.4014    0.3101 H   0  0  0  0  0  0  0  0  0  0  0  0
   -2.4166    5.3750    0.1077 H   0  0  0  0  0  0  0  0  0  0  0  0
   -2.2821    3.0036   -0.1368 H   0  0  0  0  0  0  0  0  0  0  0  0
  1  2  1  0
  2  3  1  0
  3  4  1  0
  4  5  1  0
  2  6  2  3
  6  7  1  0
  7  8  2  0
  8  9  1  0
  9 10  2  0
 10 11  1  0
 11 12  2  0
 12 13  1  0
 13 14  2  0
  8 15  1  0
 15 16  2  0
 16 17  1  0
 17 18  2  0
 18 19  1  0
 19 20  2  0
 19 21  1  0
 21 22  2  0
 22  6  1  0
 14  9  1  0
 22 16  1  0
  1 23  1  0
  4 24  1  0
  4 25  1  0
  5 26  1  0
  5 27  1  0
  5 28  1  0
  7 29  1  0
 10 30  1  0
 11 31  1  0
 12 32  1  0
 13 33  1  0
 14 34  1  0
 17 35  1  0
 18 36  1  0
 20 37  1  0
 20 38  1  0
 21 39  1  0
M  END
>  <ScrubInfo>  (9) 
{"isomerGroup": 5, "isomerId": 1, "confId": 0, "nr_conformers:": 1, "nr_isomers:": 2}

$$$$
ZINC000000001785_i0
     RDKit          3D

 32 34  0  0  0  0  0  0  0  0999 V2000
   -2.0159   -2.9192    0.9629 O   0  0  0  0  0  0  0  0  0  0  0  0
   -1.4784   -1.8704    0.6150 C   0  0  0  0  0  0  0  0  0  0  0  0
    0.0044   -1.7346    0.4261 C   0  0  0  0  0  0  0  0  0  0  0  0
    0.2476   -0.6922   -0.6564 C   0  0  2  0  0  0  0  0  0  0  0  0
    1.7344   -0.5207   -0.9084 C   0  0  0  0  0  0  0  0  0  0  0  0
    2.5334    0.2587   -0.0558 C   0  0  0  0  0  0  0  0  0  0  0  0
    3.9039    0.3868   -0.2869 C   0  0  0  0  0  0  0  0  0  0  0  0
    4.4844   -0.2656   -1.3666 C   0  0  0  0  0  0  0  0  0  0  0  0
    5.8260   -0.1130   -1.5542 O   0  0  0  0  0  0  0  0  0  0  0  0
    3.7166   -1.0475   -2.2223 C   0  0  0  0  0  0  0  0  0  0  0  0
    2.3442   -1.1761   -1.9913 C   0  0  0  0  0  0  0  0  0  0  0  0
   -0.3076    0.5796   -0.2797 O   0  0  0  0  0  0  0  0  0  0  0  0
   -1.6460    0.5151    0.0089 C   0  0  0  0  0  0  0  0  0  0  0  0
   -2.3639    1.7056   -0.1099 C   0  0  0  0  0  0  0  0  0  0  0  0
   -3.7302    1.7072    0.1603 C   0  0  0  0  0  0  0  0  0  0  0  0
   -4.4726    2.8455    0.0465 O   0  0  0  0  0  0  0  0  0  0  0  0
   -4.3852    0.5440    0.5551 C   0  0  0  0  0  0  0  0  0  0  0  0
   -3.6616   -0.6370    0.6939 C   0  0  0  0  0  0  0  0  0  0  0  0
   -4.3542   -1.7443    1.1027 O   0  0  0  0  0  0  0  0  0  0  0  0
   -2.2886   -0.6527    0.4280 C   0  0  0  0  0  0  0  0  0  0  0  0
    0.4160   -2.7053    0.1284 H   0  0  0  0  0  0  0  0  0  0  0  0
    0.4394   -1.4431    1.3891 H   0  0  0  0  0  0  0  0  0  0  0  0
   -0.2321   -0.9918   -1.6000 H   0  0  0  0  0  0  0  0  0  0  0  0
    2.0922    0.7760    0.7938 H   0  0  0  0  0  0  0  0  0  0  0  0
    4.5159    0.9942    0.3739 H   0  0  0  0  0  0  0  0  0  0  0  0
    6.0891   -0.6165   -2.3417 H   0  0  0  0  0  0  0  0  0  0  0  0
    4.1638   -1.5618   -3.0671 H   0  0  0  0  0  0  0  0  0  0  0  0
    1.7542   -1.7935   -2.6657 H   0  0  0  0  0  0  0  0  0  0  0  0
   -1.8501    2.6102   -0.4207 H   0  0  0  0  0  0  0  0  0  0  0  0
   -3.8942    3.5787   -0.2216 H   0  0  0  0  0  0  0  0  0  0  0  0
   -5.4515    0.5596    0.7628 H   0  0  0  0  0  0  0  0  0  0  0  0
   -3.7217   -2.4943    1.1765 H   0  0  0  0  0  0  0  0  0  0  0  0
  1  2  2  0
  2  3  1  0
  3  4  1  0
  4  5  1  0
  5  6  2  0
  6  7  1  0
  7  8  2  0
  8  9  1  0
  8 10  1  0
 10 11  2  0
  4 12  1  0
 12 13  1  0
 13 14  2  0
 14 15  1  0
 15 16  1  0
 15 17  2  0
 17 18  1  0
 18 19  1  0
 18 20  2  0
 20  2  1  0
 11  5  1  0
 20 13  1  0
  3 21  1  0
  3 22  1  0
  4 23  1  6
  6 24  1  0
  7 25  1  0
  9 26  1  0
 10 27  1  0
 11 28  1  0
 14 29  1  0
 16 30  1  0
 17 31  1  0
 19 32  1  0
M  END
>  <ScrubInfo>  (10) 
{"isomerGroup": 6, "isomerId": 0, "confId": 0, "nr_conformers:": 1, "nr_isomers:": 2}

$$$$
ZINC000000001785_i1
     RDKit          3D

 32 34  0  0  0  0  0  0  0  0999 V2000
   -1.6843   -2.8238   -1.3908 O   0  0  0  0  0  0  0  0  0  0  0  0
   -1.1498   -1.5815   -1.1425 C   0  0  0  0  0  0  0  0  0  0  0  0
    0.0678   -1.2496   -1.5687 C   0  0  0  0  0  0  0  0  0  0  0  0
    0.6239    0.1368   -1.4133 C   0  0  2  0  0  0  0  0  0  0  0  0
    1.8418    0.1733   -0.5032 C   0  0  0  0  0  0  0  0  0  0  0  0
    1.7150    0.0429    0.8903 C   0  0  0  0  0  0  0  0  0  0  0  0
    2.8426    0.0638    1.7132 C   0  0  0  0  0  0  0  0  0  0  0  0
    4.1034    0.2115    1.1506 C   0  0  0  0  0  0  0  0  0  0  0  0
    5.1767    0.2266    1.9911 O   0  0  0  0  0  0  0  0  0  0  0  0
    4.2581    0.3380   -0.2253 C   0  0  0  0  0  0  0  0  0  0  0  0
    3.1294    0.3169   -1.0495 C   0  0  0  0  0  0  0  0  0  0  0  0
   -0.3172    1.1498   -1.0020 O   0  0  0  0  0  0  0  0  0  0  0  0
   -1.5049    0.7487   -0.4498 C   0  0  0  0  0  0  0  0  0  0  0  0
   -2.2719    1.7645    0.1292 C   0  0  0  0  0  0  0  0  0  0  0  0
   -3.4812    1.4479    0.7394 C   0  0  0  0  0  0  0  0  0  0  0  0
   -4.2586    2.4092    1.3147 O   0  0  0  0  0  0  0  0  0  0  0  0
   -3.9256    0.1336    0.7974 C   0  0  0  0  0  0  0  0  0  0  0  0
   -3.1499   -0.8713    0.2265 C   0  0  0  0  0  0  0  0  0  0  0  0
   -3.5958   -2.1592    0.3742 O   0  0  0  0  0  0  0  0  0  0  0  0
   -1.9523   -0.5787   -0.4436 C   0  0  0  0  0  0  0  0  0  0  0  0
   -2.6448   -2.6999   -1.5329 H   0  0  0  0  0  0  0  0  0  0  0  0
    0.6765   -1.9824   -2.0884 H   0  0  0  0  0  0  0  0  0  0  0  0
    0.9377    0.4568   -2.4155 H   0  0  0  0  0  0  0  0  0  0  0  0
    0.7347   -0.0756    1.3460 H   0  0  0  0  0  0  0  0  0  0  0  0
    2.7354   -0.0355    2.7896 H   0  0  0  0  0  0  0  0  0  0  0  0
    5.9830    0.3371    1.4617 H   0  0  0  0  0  0  0  0  0  0  0  0
    5.2403    0.4524   -0.6728 H   0  0  0  0  0  0  0  0  0  0  0  0
    3.2625    0.4152   -2.1249 H   0  0  0  0  0  0  0  0  0  0  0  0
   -1.9069    2.7863    0.0989 H   0  0  0  0  0  0  0  0  0  0  0  0
   -3.8256    3.2719    1.2026 H   0  0  0  0  0  0  0  0  0  0  0  0
   -4.8580   -0.1081    1.2986 H   0  0  0  0  0  0  0  0  0  0  0  0
   -2.8019   -2.7176    0.4991 H   0  0  0  0  0  0  0  0  0  0  0  0
  1  2  1  0
  2  3  2  0
  3  4  1  0
  4  5  1  0
  5  6  2  0
  6  7  1  0
  7  8  2  0
  8  9  1  0
  8 10  1  0
 10 11  2  0
  4 12  1  0
 12 13  1  0
 13 14  2  0
 14 15  1  0
 15 16  1  0
 15 17  2  0
 17 18  1  0
 18 19  1  0
 18 20  2  0
 20  2  1  0
 11  5  1  0
 20 13  1  0
  1 21  1  0
  3 22  1  0
  4 23  1  6
  6 24  1  0
  7 25  1  0
  9 26  1  0
 10 27  1  0
 11 28  1  0
 14 29  1  0
 16 30  1  0
 17 31  1  0
 19 32  1  0
M  END
>  <ScrubInfo>  (11) 
{"isomerGroup": 6, "isomerId": 1, "confId": 0, "nr_conformers:": 1, "nr_isomers:": 2}

$$$$
ZINC000000002106_i0
     RDKit          3D

 33 35  0  0  0  0  0  0  0  0999 V2000
   -3.2101   -0.8075   -2.8119 N   0  0  0  0  0  0  0  0  0  0  0  0
   -2.8915   -0.2530   -1.5675 C   0  0  0  0  0  0  0  0  0  0  0  0
   -2.4548   -1.0746   -0.5231 C   0  0  0  0  0  0  0  0  0  0  0  0
   -2.0193   -0.5253    0.6856 C   0  0  0  0  0  0  0  0  0  0  0  0
   -1.9668    0.8627    0.8278 C   0  0  0  0  0  0  0  0  0  0  0  0
   -1.4124    1.5812    2.3575 S   0  0  0  0  0  0  0  0  0  0  0  0
   -2.1343    2.8228    2.5379 O   0  0  0  0  0  0  0  0  0  0  0  0
   -1.4334    0.5505    3.3739 O   0  0  0  0  0  0  0  0  0  0  0  0
    0.1881    1.9951    2.0403 N   0  0  0  0  0  0  0  0  0  0  0  0
    1.0245    0.9470    1.6081 C   0  0  0  0  0  0  0  0  0  0  0  0
    1.3689   -0.1549    2.3717 C   0  0  0  0  0  0  0  0  0  0  0  0
    2.1381   -1.1534    1.8795 N   0  0  0  0  0  0  0  0  0  0  0  0
    2.5528   -1.0138    0.6046 C   0  0  0  0  0  0  0  0  0  0  0  0
    3.3413   -2.0014    0.0281 C   0  0  0  0  0  0  0  0  0  0  0  0
    3.7887   -1.8963   -1.2895 C   0  0  0  0  0  0  0  0  0  0  0  0
    3.4415   -0.7839   -2.0450 C   0  0  0  0  0  0  0  0  0  0  0  0
    2.6506    0.2163   -1.4773 C   0  0  0  0  0  0  0  0  0  0  0  0
    2.1991    0.1255   -0.1666 C   0  0  0  0  0  0  0  0  0  0  0  0
    1.4350    1.1145    0.3405 N   0  0  0  0  0  0  0  0  0  0  0  0
   -2.3605    1.6989   -0.2188 C   0  0  0  0  0  0  0  0  0  0  0  0
   -2.7962    1.1349   -1.4205 C   0  0  0  0  0  0  0  0  0  0  0  0
   -3.8008   -0.2158   -3.3880 H   0  0  0  0  0  0  0  0  0  0  0  0
   -3.5562   -1.7609   -2.7613 H   0  0  0  0  0  0  0  0  0  0  0  0
   -2.4544   -2.1554   -0.6417 H   0  0  0  0  0  0  0  0  0  0  0  0
   -1.7105   -1.1856    1.4927 H   0  0  0  0  0  0  0  0  0  0  0  0
    0.2469    2.7944    1.4125 H   0  0  0  0  0  0  0  0  0  0  0  0
    1.0405   -0.2716    3.3982 H   0  0  0  0  0  0  0  0  0  0  0  0
    3.6116   -2.8725    0.6204 H   0  0  0  0  0  0  0  0  0  0  0  0
    4.4040   -2.6826   -1.7199 H   0  0  0  0  0  0  0  0  0  0  0  0
    3.7814   -0.6913   -3.0737 H   0  0  0  0  0  0  0  0  0  0  0  0
    2.3772    1.0848   -2.0719 H   0  0  0  0  0  0  0  0  0  0  0  0
   -2.3223    2.7806   -0.1157 H   0  0  0  0  0  0  0  0  0  0  0  0
   -3.0666    1.7905   -2.2446 H   0  0  0  0  0  0  0  0  0  0  0  0
  1  2  1  0
  2  3  2  0
  3  4  1  0
  4  5  2  0
  5  6  1  0
  6  7  2  0
  6  8  2  0
  6  9  1  0
  9 10  1  0
 10 11  2  0
 11 12  1  0
 12 13  2  0
 13 14  1  0
 14 15  2  0
 15 16  1  0
 16 17  2  0
 17 18  1  0
 18 19  2  0
  5 20  1  0
 20 21  2  0
 21  2  1  0
 19 10  1  0
 18 13  1  0
  1 22  1  0
  1 23  1  0
  3 24  1  0
  4 25  1  0
  9 26  1  0
 11 27  1  0
 14 28  1  0
 15 29  1  0
 16 30  1  0
 17 31  1  0
 20 32  1  0
 21 33  1  0
M  END
>  <ScrubInfo>  (12) 
{"isomerGroup": 7, "isomerId": 0, "confId": 0, "nr_conformers:": 1, "nr_isomers:": 2}

$$$$
ZINC000000002106_i1
     RDKit          3D

 33 35  0  0  0  0  0  0  0  0999 V2000
   -2.0058   -0.1088   -0.7021 N   0  0  0  0  0  0  0  0  0  0  0  0
   -1.1602   -0.8229    0.1147 C   0  0  0  0  0  0  0  0  0  0  0  0
    0.1032   -1.0579   -0.0083 N   0  0  0  0  0  0  0  0  0  0  0  0
    0.8979   -0.5359   -1.3142 S   0  0  0  0  0  0  0  0  0  0  0  0
    0.9920   -1.6206   -2.2705 O   0  0  0  0  0  0  0  0  0  0  0  0
    0.3566    0.7465   -1.7342 O   0  0  0  0  0  0  0  0  0  0  0  0
    2.5400   -0.2371   -0.6975 C   0  0  0  0  0  0  0  0  0  0  0  0
    2.9012    1.0421   -0.2708 C   0  0  0  0  0  0  0  0  0  0  0  0
    4.1974    1.2666    0.2012 C   0  0  0  0  0  0  0  0  0  0  0  0
    5.1470    0.2392    0.2047 C   0  0  0  0  0  0  0  0  0  0  0  0
    6.4005    0.4433    0.7909 N   0  0  0  0  0  0  0  0  0  0  0  0
    4.7528   -1.0463   -0.1813 C   0  0  0  0  0  0  0  0  0  0  0  0
    3.4607   -1.2859   -0.6560 C   0  0  0  0  0  0  0  0  0  0  0  0
   -1.7791   -1.4246    1.3689 C   0  0  0  0  0  0  0  0  0  0  0  0
   -3.0055   -1.2125    1.7330 N   0  0  0  0  0  0  0  0  0  0  0  0
   -3.8029   -0.3870    0.9129 C   0  0  0  0  0  0  0  0  0  0  0  0
   -5.1186   -0.1323    1.3051 C   0  0  0  0  0  0  0  0  0  0  0  0
   -5.9499    0.6689    0.5207 C   0  0  0  0  0  0  0  0  0  0  0  0
   -5.4707    1.2165   -0.6683 C   0  0  0  0  0  0  0  0  0  0  0  0
   -4.1576    0.9700   -1.0732 C   0  0  0  0  0  0  0  0  0  0  0  0
   -3.3124    0.1865   -0.2803 C   0  0  0  0  0  0  0  0  0  0  0  0
   -1.6009    0.4962   -1.4127 H   0  0  0  0  0  0  0  0  0  0  0  0
    2.1865    1.8612   -0.2872 H   0  0  0  0  0  0  0  0  0  0  0  0
    4.4629    2.2560    0.5657 H   0  0  0  0  0  0  0  0  0  0  0  0
    7.1116   -0.2142    0.4858 H   0  0  0  0  0  0  0  0  0  0  0  0
    6.7246    1.4047    0.7513 H   0  0  0  0  0  0  0  0  0  0  0  0
    5.4541   -1.8748   -0.1181 H   0  0  0  0  0  0  0  0  0  0  0  0
    3.1801   -2.2873   -0.9749 H   0  0  0  0  0  0  0  0  0  0  0  0
   -1.1119   -2.0634    1.9688 H   0  0  0  0  0  0  0  0  0  0  0  0
   -5.4949   -0.5678    2.2269 H   0  0  0  0  0  0  0  0  0  0  0  0
   -6.9731    0.8580    0.8354 H   0  0  0  0  0  0  0  0  0  0  0  0
   -6.1228    1.8312   -1.2841 H   0  0  0  0  0  0  0  0  0  0  0  0
   -3.8027    1.3923   -2.0096 H   0  0  0  0  0  0  0  0  0  0  0  0
  1  2  1  0
  2  3  2  3
  3  4  1  0
  4  5  2  0
  4  6  2  0
  4  7  1  0
  7  8  2  0
  8  9  1  0
  9 10  2  0
 10 11  1  0
 10 12  1  0
 12 13  2  0
  2 14  1  0
 14 15  2  0
 15 16  1  0
 16 17  2  0
 17 18  1  0
 18 19  2  0
 19 20  1  0
 20 21  2  0
 21  1  1  0
 13  7  1  0
 21 16  1  0
  1 22  1  0
  8 23  1  0
  9 24  1  0
 11 25  1  0
 11 26  1  0
 12 27  1  0
 13 28  1  0
 14 29  1  0
 17 30  1  0
 18 31  1  0
 19 32  1  0
 20 33  1  0
M  END
>  <ScrubInfo>  (13) 
{"isomerGroup": 7, "isomerId": 1, "confId": 0, "nr_conformers:": 1, "nr_isomers:": 2}

$$$$
ZINC000000002036_i0
     RDKit          3D

 32 34  0  0  0  0  0  0  0  0999 V2000
   -3.6585    1.0240    2.3944 C   0  0  0  0  0  0  0  0  0  0  0  0
   -3.0688    0.3329    1.2027 C   0  0  0  0  0  0  0  0  0  0  0  0
   -1.7181    0.3007    1.1299 N   0  0  0  0  0  0  0  0  0  0  0  0
   -1.1145   -0.2914    0.0695 C   0  0  0  0  0  0  0  0  0  0  0  0
    0.2761   -0.3446   -0.0131 N   0  0  0  0  0  0  0  0  0  0  0  0
    0.9832    0.6594    0.7604 C   0  0  0  0  0  0  0  0  0  0  0  0
    2.4598    0.5696    0.4473 C   0  0  0  0  0  0  0  0  0  0  0  0
    3.0834    1.5345   -0.3569 C   0  0  0  0  0  0  0  0  0  0  0  0
    4.4444    1.4362   -0.6524 C   0  0  0  0  0  0  0  0  0  0  0  0
    5.1930    0.3716   -0.1530 C   0  0  0  0  0  0  0  0  0  0  0  0
    4.5822   -0.5981    0.6400 C   0  0  0  0  0  0  0  0  0  0  0  0
    3.2222   -0.5015    0.9370 C   0  0  0  0  0  0  0  0  0  0  0  0
   -1.9386   -0.8487   -0.9224 C   0  0  0  0  0  0  0  0  0  0  0  0
   -1.7535   -1.5481   -2.1505 C   0  0  0  0  0  0  0  0  0  0  0  0
   -3.0019   -1.8274   -2.6676 C   0  0  0  0  0  0  0  0  0  0  0  0
   -3.9348   -1.3262   -1.7955 N   0  0  0  0  0  0  0  0  0  0  0  0
   -3.3057   -0.7342   -0.7348 C   0  0  0  0  0  0  0  0  0  0  0  0
   -3.9356   -0.1532    0.2939 N   0  0  0  0  0  0  0  0  0  0  0  0
   -3.0034    0.9180    3.2646 H   0  0  0  0  0  0  0  0  0  0  0  0
   -4.6333    0.5952    2.6462 H   0  0  0  0  0  0  0  0  0  0  0  0
   -3.7864    2.0882    2.1761 H   0  0  0  0  0  0  0  0  0  0  0  0
    0.6017   -0.4441   -0.9671 H   0  0  0  0  0  0  0  0  0  0  0  0
    0.6188    1.6671    0.5215 H   0  0  0  0  0  0  0  0  0  0  0  0
    0.8419    0.5033    1.8376 H   0  0  0  0  0  0  0  0  0  0  0  0
    2.5126    2.3693   -0.7574 H   0  0  0  0  0  0  0  0  0  0  0  0
    4.9210    2.1903   -1.2734 H   0  0  0  0  0  0  0  0  0  0  0  0
    6.2522    0.2959   -0.3841 H   0  0  0  0  0  0  0  0  0  0  0  0
    5.1633   -1.4317    1.0254 H   0  0  0  0  0  0  0  0  0  0  0  0
    2.7496   -1.2683    1.5482 H   0  0  0  0  0  0  0  0  0  0  0  0
   -0.8088   -1.8211   -2.6018 H   0  0  0  0  0  0  0  0  0  0  0  0
   -3.3054   -2.3397   -3.5710 H   0  0  0  0  0  0  0  0  0  0  0  0
   -4.9383   -1.3780   -1.8938 H   0  0  0  0  0  0  0  0  0  0  0  0
  1  2  1  0
  2  3  2  0
  3  4  1  0
  4  5  1  0
  5  6  1  0
  6  7  1  0
  7  8  2  0
  8  9  1  0
  9 10  2  0
 10 11  1  0
 11 12  2  0
  4 13  2  0
 13 14  1  0
 14 15  2  0
 15 16  1  0
 16 17  1  0
 17 18  2  0
 18  2  1  0
 12  7  1  0
 17 13  1  0
  1 19  1  0
  1 20  1  0
  1 21  1  0
  5 22  1  0
  6 23  1  0
  6 24  1  0
  8 25  1  0
  9 26  1  0
 10 27  1  0
 11 28  1  0
 12 29  1  0
 14 30  1  0
 15 31  1  0
 16 32  1  0
M  END
>  <ScrubInfo>  (14) 
{"isomerGroup": 8, "isomerId": 0, "confId": 0, "nr_conformers:": 1, "nr_isomers:": 5}

$$$$
ZINC000000002036_i1
     RDKit          3D

 32 34  0  0  0  0  0  0  0  0999 V2000
   -1.9910    0.8910   -0.8015 N   0  0  0  0  0  0  0  0  0  0  0  0
   -3.3636    0.8508   -0.6439 C   0  0  0  0  0  0  0  0  0  0  0  0
   -4.1983    1.7347   -1.5336 C   0  0  0  0  0  0  0  0  0  0  0  0
   -3.9717    0.0920    0.2298 N   0  0  0  0  0  0  0  0  0  0  0  0
   -3.0876   -0.6430    0.9538 C   0  0  0  0  0  0  0  0  0  0  0  0
   -3.4953   -1.5087    1.9269 N   0  0  0  0  0  0  0  0  0  0  0  0
   -2.3994   -2.1097    2.4879 C   0  0  0  0  0  0  0  0  0  0  0  0
   -1.2739   -1.6155    1.8584 C   0  0  0  0  0  0  0  0  0  0  0  0
   -1.6995   -0.6793    0.8780 C   0  0  0  0  0  0  0  0  0  0  0  0
   -1.0465    0.1769   -0.1051 C   0  0  0  0  0  0  0  0  0  0  0  0
    0.2058    0.3133   -0.3570 N   0  0  0  0  0  0  0  0  0  0  0  0
    1.2202   -0.4309    0.3662 C   0  0  0  0  0  0  0  0  0  0  0  0
    2.6000   -0.0726   -0.1370 C   0  0  0  0  0  0  0  0  0  0  0  0
    3.3090    0.9959    0.4297 C   0  0  0  0  0  0  0  0  0  0  0  0
    4.5775    1.3348   -0.0445 C   0  0  0  0  0  0  0  0  0  0  0  0
    5.1448    0.6162   -1.0954 C   0  0  0  0  0  0  0  0  0  0  0  0
    4.4419   -0.4373   -1.6777 C   0  0  0  0  0  0  0  0  0  0  0  0
    3.1733   -0.7773   -1.2047 C   0  0  0  0  0  0  0  0  0  0  0  0
   -1.5983    1.5051   -1.5002 H   0  0  0  0  0  0  0  0  0  0  0  0
   -4.0162    1.4715   -2.5793 H   0  0  0  0  0  0  0  0  0  0  0  0
   -5.2622    1.6128   -1.3130 H   0  0  0  0  0  0  0  0  0  0  0  0
   -3.9161    2.7791   -1.3740 H   0  0  0  0  0  0  0  0  0  0  0  0
   -4.4618   -1.6645    2.1761 H   0  0  0  0  0  0  0  0  0  0  0  0
   -2.5129   -2.8341    3.2833 H   0  0  0  0  0  0  0  0  0  0  0  0
   -0.2655   -1.9174    2.1022 H   0  0  0  0  0  0  0  0  0  0  0  0
    1.1796   -0.2075    1.4390 H   0  0  0  0  0  0  0  0  0  0  0  0
    1.0799   -1.5108    0.2377 H   0  0  0  0  0  0  0  0  0  0  0  0
    2.8701    1.5722    1.2407 H   0  0  0  0  0  0  0  0  0  0  0  0
    5.1199    2.1632    0.4030 H   0  0  0  0  0  0  0  0  0  0  0  0
    6.1310    0.8822   -1.4659 H   0  0  0  0  0  0  0  0  0  0  0  0
    4.8786   -0.9911   -2.5044 H   0  0  0  0  0  0  0  0  0  0  0  0
    2.6281   -1.5919   -1.6756 H   0  0  0  0  0  0  0  0  0  0  0  0
  1  2  1  0
  2  3  1  0
  2  4  2  0
  4  5  1  0
  5  6  1  0
  6  7  1  0
  7  8  2  0
  8  9  1  0
  9 10  1  0
 10 11  2  3
 11 12  1  0
 12 13  1  0
 13 14  2  0
 14 15  1  0
 15 16  2  0
 16 17  1  0
 17 18  2  0
 10  1  1  0
 18 13  1  0
  9  5  2  0
  1 19  1  0
  3 20  1  0
  3 21  1  0
  3 22  1  0
  6 23  1  0
  7 24  1  0
  8 25  1  0
 12 26  1  0
 12 27  1  0
 14 28  1  0
 15 29  1  0
 16 30  1  0
 17 31  1  0
 18 32  1  0
M  END
>  <ScrubInfo>  (15) 
{"isomerGroup": 8, "isomerId": 1, "confId": 0, "nr_conformers:": 1, "nr_isomers:": 5}

$$$$
ZINC000000002036_i2
     RDKit          3D

 32 34  0  0  0  0  0  0  0  0999 V2000
   -3.9008    0.3967    0.1556 N   0  0  0  0  0  0  0  0  0  0  0  0
   -3.2043   -0.6137    0.7693 C   0  0  0  0  0  0  0  0  0  0  0  0
   -3.9807   -1.6135    1.5844 C   0  0  0  0  0  0  0  0  0  0  0  0
   -1.9071   -0.7470    0.6856 N   0  0  0  0  0  0  0  0  0  0  0  0
   -1.1770    0.1743   -0.0703 C   0  0  0  0  0  0  0  0  0  0  0  0
    0.1995    0.0342   -0.1646 N   0  0  0  0  0  0  0  0  0  0  0  0
    0.9700   -0.8353    0.7011 C   0  0  0  0  0  0  0  0  0  0  0  0
    2.4322   -0.7310    0.3381 C   0  0  0  0  0  0  0  0  0  0  0  0
    2.9229   -1.3696   -0.8106 C   0  0  0  0  0  0  0  0  0  0  0  0
    4.2691   -1.2607   -1.1618 C   0  0  0  0  0  0  0  0  0  0  0  0
    5.1366   -0.5078   -0.3725 C   0  0  0  0  0  0  0  0  0  0  0  0
    4.6587    0.1397    0.7657 C   0  0  0  0  0  0  0  0  0  0  0  0
    3.3122    0.0323    1.1185 C   0  0  0  0  0  0  0  0  0  0  0  0
   -1.7856    1.1961   -0.7090 C   0  0  0  0  0  0  0  0  0  0  0  0
   -1.4133    2.2903   -1.5438 C   0  0  0  0  0  0  0  0  0  0  0  0
   -2.5692    2.9163   -1.8218 C   0  0  0  0  0  0  0  0  0  0  0  0
   -3.7049    2.3494   -1.2531 N   0  0  0  0  0  0  0  0  0  0  0  0
   -3.2510    1.3203   -0.5897 C   0  0  0  0  0  0  0  0  0  0  0  0
   -4.9032    0.4746    0.2343 H   0  0  0  0  0  0  0  0  0  0  0  0
   -4.4710   -1.0992    2.4156 H   0  0  0  0  0  0  0  0  0  0  0  0
   -3.3183   -2.3873    1.9819 H   0  0  0  0  0  0  0  0  0  0  0  0
   -4.7428   -2.0822    0.9555 H   0  0  0  0  0  0  0  0  0  0  0  0
    0.6899    0.8633   -0.4796 H   0  0  0  0  0  0  0  0  0  0  0  0
    0.8235   -0.5537    1.7510 H   0  0  0  0  0  0  0  0  0  0  0  0
    0.6458   -1.8780    0.5962 H   0  0  0  0  0  0  0  0  0  0  0  0
    2.2491   -1.9504   -1.4378 H   0  0  0  0  0  0  0  0  0  0  0  0
    4.6392   -1.7613   -2.0526 H   0  0  0  0  0  0  0  0  0  0  0  0
    6.1849   -0.4233   -0.6464 H   0  0  0  0  0  0  0  0  0  0  0  0
    5.3351    0.7299    1.3785 H   0  0  0  0  0  0  0  0  0  0  0  0
    2.9526    0.5477    2.0064 H   0  0  0  0  0  0  0  0  0  0  0  0
   -0.4267    2.5498   -1.8817 H   0  0  0  0  0  0  0  0  0  0  0  0
   -2.6658    3.7991   -2.4423 H   0  0  0  0  0  0  0  0  0  0  0  0
  1  2  1  0
  2  3  1  0
  2  4  2  0
  4  5  1  0
  5  6  1  0
  6  7  1  0
  7  8  1  0
  8  9  2  0
  9 10  1  0
 10 11  2  0
 11 12  1  0
 12 13  2  0
  5 14  2  0
 14 15  1  0
 15 16  2  0
 16 17  1  0
 17 18  2  0
 18  1  1  0
 13  8  1  0
 18 14  1  0
  1 19  1  0
  3 20  1  0
  3 21  1  0
  3 22  1  0
  6 23  1  0
  7 24  1  0
  7 25  1  0
  9 26  1  0
 10 27  1  0
 11 28  1  0
 12 29  1  0
 13 30  1  0
 15 31  1  0
 16 32  1  0
M  END
>  <ScrubInfo>  (16) 
{"isomerGroup": 8, "isomerId": 2, "confId": 0, "nr_conformers:": 1, "nr_isomers:": 5}

$$$$
ZINC000000002036_i3
     RDKit          3D

 32 34  0  0  0  0  0  0  0  0999 V2000
   -2.1288    0.3630   -0.6738 N   0  0  0  0  0  0  0  0  0  0  0  0
   -3.4937    0.3723   -0.4781 C   0  0  0  0  0  0  0  0  0  0  0  0
   -4.3498    0.9387   -1.5823 C   0  0  0  0  0  0  0  0  0  0  0  0
   -4.0855   -0.0815    0.5856 N   0  0  0  0  0  0  0  0  0  0  0  0
   -3.2630   -0.6069    1.5377 C   0  0  0  0  0  0  0  0  0  0  0  0
   -3.6402   -1.1182    2.6789 N   0  0  0  0  0  0  0  0  0  0  0  0
   -2.4499   -1.5215    3.2738 C   0  0  0  0  0  0  0  0  0  0  0  0
   -1.3366   -1.2853    2.5577 C   0  0  0  0  0  0  0  0  0  0  0  0
   -1.7959   -0.6589    1.3591 C   0  0  0  0  0  0  0  0  0  0  0  0
   -1.2414   -0.1621    0.2423 C   0  0  0  0  0  0  0  0  0  0  0  0
    0.1230   -0.1838    0.0198 N   0  0  0  0  0  0  0  0  0  0  0  0
    0.8524    0.7249   -0.8443 C   0  0  0  0  0  0  0  0  0  0  0  0
    2.3288    0.4295   -0.7550 C   0  0  0  0  0  0  0  0  0  0  0  0
    3.1846    1.2685   -0.0270 C   0  0  0  0  0  0  0  0  0  0  0  0
    4.5474    0.9802    0.0651 C   0  0  0  0  0  0  0  0  0  0  0  0
    5.0664   -0.1509   -0.5626 C   0  0  0  0  0  0  0  0  0  0  0  0
    4.2240   -0.9976   -1.2804 C   0  0  0  0  0  0  0  0  0  0  0  0
    2.8615   -0.7112   -1.3744 C   0  0  0  0  0  0  0  0  0  0  0  0
   -1.7451    0.6291   -1.5679 H   0  0  0  0  0  0  0  0  0  0  0  0
   -4.2725    0.2951   -2.4632 H   0  0  0  0  0  0  0  0  0  0  0  0
   -5.3964    0.9963   -1.2710 H   0  0  0  0  0  0  0  0  0  0  0  0
   -3.9972    1.9412   -1.8407 H   0  0  0  0  0  0  0  0  0  0  0  0
   -2.4768   -1.9928    4.2488 H   0  0  0  0  0  0  0  0  0  0  0  0
   -0.3236   -1.5201    2.8287 H   0  0  0  0  0  0  0  0  0  0  0  0
    0.6592   -0.4707    0.8364 H   0  0  0  0  0  0  0  0  0  0  0  0
    0.5269    0.6155   -1.8857 H   0  0  0  0  0  0  0  0  0  0  0  0
    0.6554    1.7630   -0.5506 H   0  0  0  0  0  0  0  0  0  0  0  0
    2.7961    2.1521    0.4748 H   0  0  0  0  0  0  0  0  0  0  0  0
    5.2051    1.6371    0.6289 H   0  0  0  0  0  0  0  0  0  0  0  0
    6.1276   -0.3748   -0.4890 H   0  0  0  0  0  0  0  0  0  0  0  0
    4.6275   -1.8836   -1.7641 H   0  0  0  0  0  0  0  0  0  0  0  0
    2.2108   -1.3862   -1.9272 H   0  0  0  0  0  0  0  0  0  0  0  0
  1  2  1  0
  2  3  1  0
  2  4  2  0
  4  5  1  0
  5  6  2  0
  6  7  1  0
  7  8  2  0
  8  9  1  0
  9 10  2  0
 10 11  1  0
 11 12  1  0
 12 13  1  0
 13 14  2  0
 14 15  1  0
 15 16  2  0
 16 17  1  0
 17 18  2  0
 10  1  1  0
 18 13  1  0
  9  5  1  0
  1 19  1  0
  3 20  1  0
  3 21  1  0
  3 22  1  0
  7 23  1  0
  8 24  1  0
 11 25  1  0
 12 26  1  0
 12 27  1  0
 14 28  1  0
 15 29  1  0
 16 30  1  0
 17 31  1  0
 18 32  1  0
M  END
>  <ScrubInfo>  (17) 
{"isomerGroup": 8, "isomerId": 3, "confId": 0, "nr_conformers:": 1, "nr_isomers:": 5}

$$$$
ZINC000000002036_i4
     RDKit          3D

 32 34  0  0  0  0  0  0  0  0999 V2000
   -3.7158   -0.2530    0.7297 N   0  0  0  0  0  0  0  0  0  0  0  0
   -2.9952    0.6862    1.4455 C   0  0  0  0  0  0  0  0  0  0  0  0
   -3.7524    1.5169    2.4517 C   0  0  0  0  0  0  0  0  0  0  0  0
   -1.7186    0.9038    1.3137 N   0  0  0  0  0  0  0  0  0  0  0  0
   -0.9716    0.1717    0.4022 C   0  0  0  0  0  0  0  0  0  0  0  0
    0.2740    0.4670    0.3467 N   0  0  0  0  0  0  0  0  0  0  0  0
    1.1944   -0.2054   -0.5506 C   0  0  0  0  0  0  0  0  0  0  0  0
    2.6156    0.3086   -0.4312 C   0  0  0  0  0  0  0  0  0  0  0  0
    3.4847    0.2192   -1.5295 C   0  0  0  0  0  0  0  0  0  0  0  0
    4.8097    0.6488   -1.4265 C   0  0  0  0  0  0  0  0  0  0  0  0
    5.2852    1.1621   -0.2216 C   0  0  0  0  0  0  0  0  0  0  0  0
    4.4376    1.2437    0.8810 C   0  0  0  0  0  0  0  0  0  0  0  0
    3.1128    0.8146    0.7784 C   0  0  0  0  0  0  0  0  0  0  0  0
   -1.6876   -0.8403   -0.3776 C   0  0  0  0  0  0  0  0  0  0  0  0
   -1.3667   -1.7969   -1.3799 C   0  0  0  0  0  0  0  0  0  0  0  0
   -2.5282   -2.4702   -1.7167 C   0  0  0  0  0  0  0  0  0  0  0  0
   -3.5524   -1.9613   -0.9566 N   0  0  0  0  0  0  0  0  0  0  0  0
   -3.0377   -0.9898   -0.1606 C   0  0  0  0  0  0  0  0  0  0  0  0
   -4.7093   -0.3470    0.9054 H   0  0  0  0  0  0  0  0  0  0  0  0
   -4.5311    2.0872    1.9373 H   0  0  0  0  0  0  0  0  0  0  0  0
   -4.2204    0.8572    3.1878 H   0  0  0  0  0  0  0  0  0  0  0  0
   -3.0817    2.2100    2.9671 H   0  0  0  0  0  0  0  0  0  0  0  0
    1.2309   -1.2788   -0.3306 H   0  0  0  0  0  0  0  0  0  0  0  0
    0.8707   -0.0509   -1.5867 H   0  0  0  0  0  0  0  0  0  0  0  0
    3.1318   -0.1842   -2.4755 H   0  0  0  0  0  0  0  0  0  0  0  0
    5.4703    0.5822   -2.2866 H   0  0  0  0  0  0  0  0  0  0  0  0
    6.3152    1.4979   -0.1410 H   0  0  0  0  0  0  0  0  0  0  0  0
    4.8039    1.6422    1.8232 H   0  0  0  0  0  0  0  0  0  0  0  0
    2.4608    0.8836    1.6472 H   0  0  0  0  0  0  0  0  0  0  0  0
   -0.4031   -1.9970   -1.8268 H   0  0  0  0  0  0  0  0  0  0  0  0
   -2.7093   -3.2644   -2.4293 H   0  0  0  0  0  0  0  0  0  0  0  0
   -4.5164   -2.2637   -0.9896 H   0  0  0  0  0  0  0  0  0  0  0  0
  1  2  1  0
  2  3  1  0
  2  4  2  0
  4  5  1  0
  5  6  2  3
  6  7  1  0
  7  8  1  0
  8  9  2  0
  9 10  1  0
 10 11  2  0
 11 12  1  0
 12 13  2  0
  5 14  1  0
 14 15  1  0
 15 16  2  0
 16 17  1  0
 17 18  1  0
 18  1  1  0
 13  8  1  0
 18 14  2  0
  1 19  1  0
  3 20  1  0
  3 21  1  0
  3 22  1  0
  7 23  1  0
  7 24  1  0
  9 25  1  0
 10 26  1  0
 11 27  1  0
 12 28  1  0
 13 29  1  0
 15 30  1  0
 16 31  1  0
 17 32  1  0
M  END
>  <ScrubInfo>  (18) 
{"isomerGroup": 8, "isomerId": 4, "confId": 0, "nr_conformers:": 1, "nr_isomers:": 5}

$$$$
