MODEL 1
REMARK VINA RESULT:    -5.914      0.000      0.000
REMARK INTER + INTRA:          -8.178
REMARK INTER:                  -7.297
REMARK INTRA:                  -0.880
REMARK UNBOUND:                -0.880
REMARK SMILES CCOC(=O)c1cc(-c2ccccc2)nc2ccc(C)cc12
REMARK SMILES IDX 3 1 2 2 1 3 4 4 5 5 6 6 7 7 22 8 8 9 21 10 16 11 15 12 19 13
REMARK SMILES IDX 17 14 18 15 20 16 9 17 10 18 14 19 11 20 13 21 12 22
REMARK H PARENT
ROOT
ATOM      1  O   UNL     1      24.119  34.503   7.960  1.00  0.00    -0.462 OA
ENDROOT
BRANCH   1   2
ATOM      2  C   UNL     1      24.718  34.600   6.660  1.00  0.00     0.230 C 
ATOM      3  C   UNL     1      25.150  33.227   6.179  1.00  0.00     0.049 C 
ENDBRANCH   1   2
BRANCH   1   4
ATOM      4  C   UNL     1      22.762  34.549   7.987  1.00  0.00     0.338 C 
ATOM      5  O   UNL     1      22.051  35.292   7.333  1.00  0.00    -0.246 OA
BRANCH   4   6
ATOM      6  C   UNL     1      22.271  33.557   8.974  1.00  0.00     0.071 A 
ATOM      7  C   UNL     1      22.194  33.955  10.313  1.00  0.00     0.045 A 
ATOM      8  C   UNL     1      21.920  32.244   8.587  1.00  0.00     0.015 A 
ATOM      9  C   UNL     1      21.758  33.042  11.258  1.00  0.00     0.072 A 
ATOM     10  C   UNL     1      21.947  31.739   7.258  1.00  0.00     0.014 A 
ATOM     11  C   UNL     1      21.498  31.392   9.622  1.00  0.00     0.072 A 
ATOM     12  N   UNL     1      21.425  31.777  10.907  1.00  0.00    -0.248 NA
ATOM     13  C   UNL     1      21.586  30.419   6.966  1.00  0.00    -0.050 A 
ATOM     14  C   UNL     1      21.130  30.091   9.314  1.00  0.00     0.029 A 
ATOM     15  C   UNL     1      21.164  29.598   8.008  1.00  0.00     0.005 A 
ATOM     16  C   UNL     1      21.599  29.921   5.552  1.00  0.00     0.044 C 
BRANCH   9  17
ATOM     17  C   UNL     1      21.640  33.363  12.695  1.00  0.00     0.000 A 
ATOM     18  C   UNL     1      22.124  34.586  13.199  1.00  0.00     0.010 A 
ATOM     19  C   UNL     1      21.055  32.474  13.617  1.00  0.00     0.010 A 
ATOM     20  C   UNL     1      22.015  34.913  14.554  1.00  0.00     0.001 A 
ATOM     21  C   UNL     1      20.947  32.799  14.973  1.00  0.00     0.001 A 
ATOM     22  C   UNL     1      21.425  34.019  15.440  1.00  0.00     0.000 A 
ENDBRANCH   9  17
ENDBRANCH   4   6
ENDBRANCH   1   4
TORSDOF 4
ENDMDL
MODEL 2
REMARK VINA RESULT:    -5.752      0.848      1.521
REMARK INTER + INTRA:          -7.978
REMARK INTER:                  -7.190
REMARK INTRA:                  -0.788
REMARK UNBOUND:                -0.880
REMARK SMILES CCOC(=O)c1cc(-c2ccccc2)nc2ccc(C)cc12
REMARK SMILES IDX 3 1 2 2 1 3 4 4 5 5 6 6 7 7 22 8 8 9 21 10 16 11 15 12 19 13
REMARK SMILES IDX 17 14 18 15 20 16 9 17 10 18 14 19 11 20 13 21 12 22
REMARK H PARENT
ROOT
ATOM      1  O   UNL     1      24.090  34.645   8.226  1.00  0.00    -0.462 OA
ENDROOT
BRANCH   1   2
ATOM      2  C   UNL     1      24.617  35.977   8.129  1.00  0.00     0.230 C 
ATOM      3  C   UNL     1      24.395  36.723   9.432  1.00  0.00     0.049 C 
ENDBRANCH   1   2
BRANCH   1   4
ATOM      4  C   UNL     1      22.743  34.535   8.093  1.00  0.00     0.338 C 
ATOM      5  O   UNL     1      22.038  35.172   7.331  1.00  0.00    -0.246 OA
BRANCH   4   6
ATOM      6  C   UNL     1      22.250  33.522   9.057  1.00  0.00     0.071 A 
ATOM      7  C   UNL     1      22.166  33.892  10.404  1.00  0.00     0.045 A 
ATOM      8  C   UNL     1      21.906  32.216   8.641  1.00  0.00     0.015 A 
ATOM      9  C   UNL     1      21.729  32.958  11.327  1.00  0.00     0.072 A 
ATOM     10  C   UNL     1      21.941  31.738   7.303  1.00  0.00     0.014 A 
ATOM     11  C   UNL     1      21.481  31.341   9.657  1.00  0.00     0.072 A 
ATOM     12  N   UNL     1      21.401  31.699  10.949  1.00  0.00    -0.248 NA
ATOM     13  C   UNL     1      21.586  30.424   6.981  1.00  0.00    -0.050 A 
ATOM     14  C   UNL     1      21.119  30.045   9.320  1.00  0.00     0.029 A 
ATOM     15  C   UNL     1      21.161  29.580   8.004  1.00  0.00     0.005 A 
ATOM     16  C   UNL     1      21.607  29.955   5.558  1.00  0.00     0.044 C 
BRANCH   9  17
ATOM     17  C   UNL     1      21.602  33.249  12.770  1.00  0.00     0.000 A 
ATOM     18  C   UNL     1      21.172  32.253  13.668  1.00  0.00     0.010 A 
ATOM     19  C   UNL     1      21.891  34.518  13.308  1.00  0.00     0.010 A 
ATOM     20  C   UNL     1      21.053  32.505  15.037  1.00  0.00     0.001 A 
ATOM     21  C   UNL     1      21.771  34.773  14.678  1.00  0.00     0.001 A 
ATOM     22  C   UNL     1      21.354  33.765  15.542  1.00  0.00     0.000 A 
ENDBRANCH   9  17
ENDBRANCH   4   6
ENDBRANCH   1   4
TORSDOF 4
ENDMDL
MODEL 3
REMARK VINA RESULT:    -5.158      2.373      6.371
REMARK INTER + INTRA:          -7.245
REMARK INTER:                  -6.448
REMARK INTRA:                  -0.797
REMARK UNBOUND:                -0.880
REMARK SMILES CCOC(=O)c1cc(-c2ccccc2)nc2ccc(C)cc12
REMARK SMILES IDX 3 1 2 2 1 3 4 4 5 5 6 6 7 7 22 8 8 9 21 10 16 11 15 12 19 13
REMARK SMILES IDX 17 14 18 15 20 16 9 17 10 18 14 19 11 20 13 21 12 22
REMARK H PARENT
ROOT
ATOM      1  O   UNL     1      24.073  35.184  13.265  1.00  0.00    -0.462 OA
ENDROOT
BRANCH   1   2
ATOM      2  C   UNL     1      24.702  36.290  12.603  1.00  0.00     0.230 C 
ATOM      3  C   UNL     1      24.582  36.136  11.098  1.00  0.00     0.049 C 
ENDBRANCH   1   2
BRANCH   1   4
ATOM      4  C   UNL     1      22.715  35.192  13.261  1.00  0.00     0.338 C 
ATOM      5  O   UNL     1      21.997  36.158  13.457  1.00  0.00    -0.246 OA
BRANCH   4   6
ATOM      6  C   UNL     1      22.230  33.814  13.007  1.00  0.00     0.071 A 
ATOM      7  C   UNL     1      22.160  33.384  11.677  1.00  0.00     0.045 A 
ATOM      8  C   UNL     1      21.822  32.970  14.064  1.00  0.00     0.015 A 
ATOM      9  C   UNL     1      21.692  32.109  11.411  1.00  0.00     0.072 A 
ATOM     10  C   UNL     1      21.863  33.298  15.446  1.00  0.00     0.014 A 
ATOM     11  C   UNL     1      21.354  31.698  13.687  1.00  0.00     0.072 A 
ATOM     12  N   UNL     1      21.289  31.288  12.410  1.00  0.00    -0.248 NA
ATOM     13  C   UNL     1      21.432  32.399  16.428  1.00  0.00    -0.050 A 
ATOM     14  C   UNL     1      20.945  30.814  14.674  1.00  0.00     0.029 A 
ATOM     15  C   UNL     1      20.982  31.144  16.030  1.00  0.00     0.005 A 
ATOM     16  C   UNL     1      21.510  32.762  17.881  1.00  0.00     0.044 C 
BRANCH   9  17
ATOM     17  C   UNL     1      21.582  31.560  10.043  1.00  0.00     0.000 A 
ATOM     18  C   UNL     1      21.863  32.365   8.922  1.00  0.00     0.010 A 
ATOM     19  C   UNL     1      21.188  30.230   9.798  1.00  0.00     0.010 A 
ATOM     20  C   UNL     1      21.773  31.863   7.621  1.00  0.00     0.001 A 
ATOM     21  C   UNL     1      21.095  29.727   8.496  1.00  0.00     0.001 A 
ATOM     22  C   UNL     1      21.390  30.543   7.409  1.00  0.00     0.000 A 
ENDBRANCH   9  17
ENDBRANCH   4   6
ENDBRANCH   1   4
TORSDOF 4
ENDMDL
MODEL 4
REMARK VINA RESULT:    -5.132      2.635      6.282
REMARK INTER + INTRA:          -7.212
REMARK INTER:                  -6.421
REMARK INTRA:                  -0.791
REMARK UNBOUND:                -0.880
REMARK SMILES CCOC(=O)c1cc(-c2ccccc2)nc2ccc(C)cc12
REMARK SMILES IDX 3 1 2 2 1 3 4 4 5 5 6 6 7 7 22 8 8 9 21 10 16 11 15 12 19 13
REMARK SMILES IDX 17 14 18 15 20 16 9 17 10 18 14 19 11 20 13 21 12 22
REMARK H PARENT
ROOT
ATOM      1  O   UNL     1      23.477  36.142  12.317  1.00  0.00    -0.462 OA
ENDROOT
BRANCH   1   2
ATOM      2  C   UNL     1      23.222  35.380  13.506  1.00  0.00     0.230 C 
ATOM      3  C   UNL     1      21.839  34.758  13.443  1.00  0.00     0.049 C 
ENDBRANCH   1   2
BRANCH   1   4
ATOM      4  C   UNL     1      24.397  35.616  11.469  1.00  0.00     0.338 C 
ATOM      5  O   UNL     1      25.589  35.487  11.685  1.00  0.00    -0.246 OA
BRANCH   4   6
ATOM      6  C   UNL     1      23.721  35.243  10.203  1.00  0.00     0.071 A 
ATOM      7  C   UNL     1      23.228  33.938  10.088  1.00  0.00     0.045 A 
ATOM      8  C   UNL     1      23.601  36.159   9.133  1.00  0.00     0.015 A 
ATOM      9  C   UNL     1      22.610  33.558   8.910  1.00  0.00     0.072 A 
ATOM     10  C   UNL     1      24.052  37.507   9.146  1.00  0.00     0.014 A 
ATOM     11  C   UNL     1      22.966  35.673   7.977  1.00  0.00     0.072 A 
ATOM     12  N   UNL     1      22.493  34.420   7.871  1.00  0.00    -0.248 NA
ATOM     13  C   UNL     1      23.897  38.345   8.036  1.00  0.00    -0.050 A 
ATOM     14  C   UNL     1      22.807  36.520   6.891  1.00  0.00     0.029 A 
ATOM     15  C   UNL     1      23.257  37.842   6.907  1.00  0.00     0.005 A 
ATOM     16  C   UNL     1      24.359  39.770   8.086  1.00  0.00     0.044 C 
BRANCH   9  17
ATOM     17  C   UNL     1      22.055  32.207   8.689  1.00  0.00     0.000 A 
ATOM     18  C   UNL     1      21.586  31.439   9.773  1.00  0.00     0.010 A 
ATOM     19  C   UNL     1      21.977  31.627   7.408  1.00  0.00     0.010 A 
ATOM     20  C   UNL     1      21.050  30.161   9.586  1.00  0.00     0.001 A 
ATOM     21  C   UNL     1      21.443  30.348   7.219  1.00  0.00     0.001 A 
ATOM     22  C   UNL     1      20.977  29.617   8.308  1.00  0.00     0.000 A 
ENDBRANCH   9  17
ENDBRANCH   4   6
ENDBRANCH   1   4
TORSDOF 4
ENDMDL
MODEL 5
REMARK VINA RESULT:    -4.970      3.861      6.855
REMARK INTER + INTRA:          -7.012
REMARK INTER:                  -6.290
REMARK INTRA:                  -0.722
REMARK UNBOUND:                -0.880
REMARK SMILES CCOC(=O)c1cc(-c2ccccc2)nc2ccc(C)cc12
REMARK SMILES IDX 3 1 2 2 1 3 4 4 5 5 6 6 7 7 22 8 8 9 21 10 16 11 15 12 19 13
REMARK SMILES IDX 17 14 18 15 20 16 9 17 10 18 14 19 11 20 13 21 12 22
REMARK H PARENT
ROOT
ATOM      1  O   UNL     1      24.359  37.917  11.419  1.00  0.00    -0.462 OA
ENDROOT
BRANCH   1   2
ATOM      2  C   UNL     1      24.457  39.312  11.743  1.00  0.00     0.230 C 
ATOM      3  C   UNL     1      23.243  39.751  12.540  1.00  0.00     0.049 C 
ENDBRANCH   1   2
BRANCH   1   4
ATOM      4  C   UNL     1      25.076  37.513  10.339  1.00  0.00     0.338 C 
ATOM      5  O   UNL     1      26.285  37.580  10.208  1.00  0.00    -0.246 OA
BRANCH   4   6
ATOM      6  C   UNL     1      24.139  36.994   9.313  1.00  0.00     0.071 A 
ATOM      7  C   UNL     1      23.727  35.661   9.422  1.00  0.00     0.045 A 
ATOM      8  C   UNL     1      23.699  37.804   8.241  1.00  0.00     0.015 A 
ATOM      9  C   UNL     1      22.870  35.147   8.465  1.00  0.00     0.072 A 
ATOM     10  C   UNL     1      24.042  39.168   8.041  1.00  0.00     0.014 A 
ATOM     11  C   UNL     1      22.837  37.184   7.319  1.00  0.00     0.072 A 
ATOM     12  N   UNL     1      22.443  35.905   7.427  1.00  0.00    -0.248 NA
ATOM     13  C   UNL     1      23.563  39.894   6.945  1.00  0.00    -0.050 A 
ATOM     14  C   UNL     1      22.359  37.922   6.246  1.00  0.00     0.029 A 
ATOM     15  C   UNL     1      22.704  39.260   6.052  1.00  0.00     0.005 A 
ATOM     16  C   UNL     1      23.920  41.340   6.773  1.00  0.00     0.044 C 
BRANCH   9  17
ATOM     17  C   UNL     1      22.375  33.755   8.491  1.00  0.00     0.000 A 
ATOM     18  C   UNL     1      22.480  32.935   7.351  1.00  0.00     0.010 A 
ATOM     19  C   UNL     1      21.776  33.192   9.635  1.00  0.00     0.010 A 
ATOM     20  C   UNL     1      22.025  31.613   7.356  1.00  0.00     0.001 A 
ATOM     21  C   UNL     1      21.318  31.871   9.642  1.00  0.00     0.001 A 
ATOM     22  C   UNL     1      21.446  31.081   8.503  1.00  0.00     0.000 A 
ENDBRANCH   9  17
ENDBRANCH   4   6
ENDBRANCH   1   4
TORSDOF 4
ENDMDL
MODEL 6
REMARK VINA RESULT:    -4.948      3.211      7.464
REMARK INTER + INTRA:          -6.986
REMARK INTER:                  -6.333
REMARK INTRA:                  -0.653
REMARK UNBOUND:                -0.880
REMARK SMILES CCOC(=O)c1cc(-c2ccccc2)nc2ccc(C)cc12
REMARK SMILES IDX 3 1 2 2 1 3 4 4 5 5 6 6 7 7 22 8 8 9 21 10 16 11 15 12 19 13
REMARK SMILES IDX 17 14 18 15 20 16 9 17 10 18 14 19 11 20 13 21 12 22
REMARK H PARENT
ROOT
ATOM      1  O   UNL     1      22.066  37.565  13.666  1.00  0.00    -0.462 OA
ENDROOT
BRANCH   1   2
ATOM      2  C   UNL     1      22.355  38.829  14.280  1.00  0.00     0.230 C 
ATOM      3  C   UNL     1      22.306  39.937  13.244  1.00  0.00     0.049 C 
ENDBRANCH   1   2
BRANCH   1   4
ATOM      4  C   UNL     1      22.989  36.589  13.868  1.00  0.00     0.338 C 
ATOM      5  O   UNL     1      24.200  36.723  13.842  1.00  0.00    -0.246 OA
BRANCH   4   6
ATOM      6  C   UNL     1      22.283  35.306  14.099  1.00  0.00     0.071 A 
ATOM      7  C   UNL     1      22.142  34.435  13.013  1.00  0.00     0.045 A 
ATOM      8  C   UNL     1      21.742  34.981  15.364  1.00  0.00     0.015 A 
ATOM      9  C   UNL     1      21.469  33.240  13.198  1.00  0.00     0.072 A 
ATOM     10  C   UNL     1      21.837  35.781  16.534  1.00  0.00     0.014 A 
ATOM     11  C   UNL     1      21.070  33.748  15.445  1.00  0.00     0.072 A 
ATOM     12  N   UNL     1      20.937  32.914  14.400  1.00  0.00    -0.248 NA
ATOM     13  C   UNL     1      21.265  35.383  17.747  1.00  0.00    -0.050 A 
ATOM     14  C   UNL     1      20.520  33.361  16.658  1.00  0.00     0.029 A 
ATOM     15  C   UNL     1      20.612  34.154  17.803  1.00  0.00     0.005 A 
ATOM     16  C   UNL     1      21.403  36.235  18.973  1.00  0.00     0.044 C 
BRANCH   9  17
ATOM     17  C   UNL     1      21.269  32.252  12.117  1.00  0.00     0.000 A 
ATOM     18  C   UNL     1      21.436  32.621  10.768  1.00  0.00     0.010 A 
ATOM     19  C   UNL     1      20.897  30.919  12.379  1.00  0.00     0.010 A 
ATOM     20  C   UNL     1      21.259  31.700   9.732  1.00  0.00     0.001 A 
ATOM     21  C   UNL     1      20.718  29.997  11.342  1.00  0.00     0.001 A 
ATOM     22  C   UNL     1      20.901  30.388  10.019  1.00  0.00     0.000 A 
ENDBRANCH   9  17
ENDBRANCH   4   6
ENDBRANCH   1   4
TORSDOF 4
ENDMDL
MODEL 7
REMARK VINA RESULT:    -4.944      1.748      6.283
REMARK INTER + INTRA:          -6.981
REMARK INTER:                  -6.279
REMARK INTRA:                  -0.702
REMARK UNBOUND:                -0.880
REMARK SMILES CCOC(=O)c1cc(-c2ccccc2)nc2ccc(C)cc12
REMARK SMILES IDX 3 1 2 2 1 3 4 4 5 5 6 6 7 7 22 8 8 9 21 10 16 11 15 12 19 13
REMARK SMILES IDX 17 14 18 15 20 16 9 17 10 18 14 19 11 20 13 21 12 22
REMARK H PARENT
ROOT
ATOM      1  O   UNL     1      23.121  35.374   9.249  1.00  0.00    -0.462 OA
ENDROOT
BRANCH   1   2
ATOM      2  C   UNL     1      23.540  36.428   8.370  1.00  0.00     0.230 C 
ATOM      3  C   UNL     1      22.855  36.290   7.023  1.00  0.00     0.049 C 
ENDBRANCH   1   2
BRANCH   1   4
ATOM      4  C   UNL     1      23.944  34.296   9.309  1.00  0.00     0.338 C 
ATOM      5  O   UNL     1      25.138  34.310   9.554  1.00  0.00    -0.246 OA
BRANCH   4   6
ATOM      6  C   UNL     1      23.159  33.079   8.994  1.00  0.00     0.071 A 
ATOM      7  C   UNL     1      23.353  32.484   7.742  1.00  0.00     0.045 A 
ATOM      8  C   UNL     1      22.221  32.549   9.910  1.00  0.00     0.015 A 
ATOM      9  C   UNL     1      22.617  31.358   7.416  1.00  0.00     0.072 A 
ATOM     10  C   UNL     1      21.954  33.063  11.208  1.00  0.00     0.014 A 
ATOM     11  C   UNL     1      21.519  31.410   9.480  1.00  0.00     0.072 A 
ATOM     12  N   UNL     1      21.709  30.841   8.277  1.00  0.00    -0.248 NA
ATOM     13  C   UNL     1      21.002  32.477  12.049  1.00  0.00    -0.050 A 
ATOM     14  C   UNL     1      20.589  30.832  10.331  1.00  0.00     0.029 A 
ATOM     15  C   UNL     1      20.327  31.345  11.603  1.00  0.00     0.005 A 
ATOM     16  C   UNL     1      20.759  33.024  13.424  1.00  0.00     0.044 C 
BRANCH   9  17
ATOM     17  C   UNL     1      22.749  30.655   6.123  1.00  0.00     0.000 A 
ATOM     18  C   UNL     1      21.689  29.878   5.617  1.00  0.00     0.010 A 
ATOM     19  C   UNL     1      23.925  30.720   5.350  1.00  0.00     0.010 A 
ATOM     20  C   UNL     1      21.791  29.211   4.393  1.00  0.00     0.001 A 
ATOM     21  C   UNL     1      24.029  30.052   4.126  1.00  0.00     0.001 A 
ATOM     22  C   UNL     1      22.961  29.300   3.647  1.00  0.00     0.000 A 
ENDBRANCH   9  17
ENDBRANCH   4   6
ENDBRANCH   1   4
TORSDOF 4
ENDMDL
MODEL 8
REMARK VINA RESULT:    -4.688      1.885      6.128
REMARK INTER + INTRA:          -6.664
REMARK INTER:                  -5.919
REMARK INTRA:                  -0.745
REMARK UNBOUND:                -0.880
REMARK SMILES CCOC(=O)c1cc(-c2ccccc2)nc2ccc(C)cc12
REMARK SMILES IDX 3 1 2 2 1 3 4 4 5 5 6 6 7 7 22 8 8 9 21 10 16 11 15 12 19 13
REMARK SMILES IDX 17 14 18 15 20 16 9 17 10 18 14 19 11 20 13 21 12 22
REMARK H PARENT
ROOT
ATOM      1  O   UNL     1      23.929  36.584  10.877  1.00  0.00    -0.462 OA
ENDROOT
BRANCH   1   2
ATOM      2  C   UNL     1      24.734  37.191   9.856  1.00  0.00     0.230 C 
ATOM      3  C   UNL     1      23.953  37.280   8.558  1.00  0.00     0.049 C 
ENDBRANCH   1   2
BRANCH   1   4
ATOM      4  C   UNL     1      24.469  35.493  11.479  1.00  0.00     0.338 C 
ATOM      5  O   UNL     1      25.619  35.373  11.861  1.00  0.00    -0.246 OA
BRANCH   4   6
ATOM      6  C   UNL     1      23.430  34.439  11.576  1.00  0.00     0.071 A 
ATOM      7  C   UNL     1      23.195  33.650  10.444  1.00  0.00     0.045 A 
ATOM      8  C   UNL     1      22.676  34.253  12.757  1.00  0.00     0.015 A 
ATOM      9  C   UNL     1      22.216  32.674  10.501  1.00  0.00     0.072 A 
ATOM     10  C   UNL     1      22.839  34.986  13.964  1.00  0.00     0.014 A 
ATOM     11  C   UNL     1      21.701  33.242  12.710  1.00  0.00     0.072 A 
ATOM     12  N   UNL     1      21.479  32.486  11.622  1.00  0.00    -0.248 NA
ATOM     13  C   UNL     1      22.043  34.738  15.088  1.00  0.00    -0.050 A 
ATOM     14  C   UNL     1      20.930  32.998  13.837  1.00  0.00     0.029 A 
ATOM     15  C   UNL     1      21.091  33.725  15.018  1.00  0.00     0.005 A 
ATOM     16  C   UNL     1      22.254  35.508  16.357  1.00  0.00     0.044 C 
BRANCH   9  17
ATOM     17  C   UNL     1      21.894  31.788   9.363  1.00  0.00     0.000 A 
ATOM     18  C   UNL     1      21.370  30.499   9.584  1.00  0.00     0.010 A 
ATOM     19  C   UNL     1      22.100  32.178   8.026  1.00  0.00     0.010 A 
ATOM     20  C   UNL     1      21.051  29.648   8.522  1.00  0.00     0.001 A 
ATOM     21  C   UNL     1      21.783  31.327   6.962  1.00  0.00     0.001 A 
ATOM     22  C   UNL     1      21.256  30.064   7.211  1.00  0.00     0.000 A 
ENDBRANCH   9  17
ENDBRANCH   4   6
ENDBRANCH   1   4
TORSDOF 4
ENDMDL
MODEL 9
REMARK VINA RESULT:    -4.681      2.921      6.208
REMARK INTER + INTRA:          -6.656
REMARK INTER:                  -5.821
REMARK INTRA:                  -0.835
REMARK UNBOUND:                -0.880
REMARK SMILES CCOC(=O)c1cc(-c2ccccc2)nc2ccc(C)cc12
REMARK SMILES IDX 3 1 2 2 1 3 4 4 5 5 6 6 7 7 22 8 8 9 21 10 16 11 15 12 19 13
REMARK SMILES IDX 17 14 18 15 20 16 9 17 10 18 14 19 11 20 13 21 12 22
REMARK H PARENT
ROOT
ATOM      1  O   UNL     1      23.079  35.212  12.130  1.00  0.00    -0.462 OA
ENDROOT
BRANCH   1   2
ATOM      2  C   UNL     1      22.676  34.304  13.166  1.00  0.00     0.230 C 
ATOM      3  C   UNL     1      21.198  33.985  13.035  1.00  0.00     0.049 C 
ENDBRANCH   1   2
BRANCH   1   4
ATOM      4  C   UNL     1      24.069  34.768  11.313  1.00  0.00     0.338 C 
ATOM      5  O   UNL     1      25.182  34.409  11.654  1.00  0.00    -0.246 OA
BRANCH   4   6
ATOM      6  C   UNL     1      23.587  34.817   9.911  1.00  0.00     0.071 A 
ATOM      7  C   UNL     1      23.751  36.015   9.208  1.00  0.00     0.045 A 
ATOM      8  C   UNL     1      22.955  33.705   9.310  1.00  0.00     0.015 A 
ATOM      9  C   UNL     1      23.292  36.093   7.905  1.00  0.00     0.072 A 
ATOM     10  C   UNL     1      22.748  32.440   9.925  1.00  0.00     0.014 A 
ATOM     11  C   UNL     1      22.516  33.889   7.987  1.00  0.00     0.072 A 
ATOM     12  N   UNL     1      22.676  35.041   7.315  1.00  0.00    -0.248 NA
ATOM     13  C   UNL     1      22.105  31.393   9.256  1.00  0.00    -0.050 A 
ATOM     14  C   UNL     1      21.894  32.837   7.333  1.00  0.00     0.029 A 
ATOM     15  C   UNL     1      21.689  31.598   7.944  1.00  0.00     0.005 A 
ATOM     16  C   UNL     1      21.924  30.061   9.920  1.00  0.00     0.044 C 
BRANCH   9  17
ATOM     17  C   UNL     1      23.419  37.310   7.077  1.00  0.00     0.000 A 
ATOM     18  C   UNL     1      24.641  37.630   6.454  1.00  0.00     0.010 A 
ATOM     19  C   UNL     1      22.345  38.200   6.880  1.00  0.00     0.010 A 
ATOM     20  C   UNL     1      24.781  38.773   5.661  1.00  0.00     0.001 A 
ATOM     21  C   UNL     1      22.483  39.344   6.087  1.00  0.00     0.001 A 
ATOM     22  C   UNL     1      23.701  39.628   5.476  1.00  0.00     0.000 A 
ENDBRANCH   9  17
ENDBRANCH   4   6
ENDBRANCH   1   4
TORSDOF 4
ENDMDL
