MODEL 1
REMARK VINA RESULT:    -4.516      0.000      0.000
REMARK INTER + INTRA:          -4.969
REMARK INTER:                  -5.836
REMARK INTRA:                   0.867
REMARK UNBOUND:                 0.867
REMARK SMILES O=C1CN=C(c2ccc[nH]2)c2cc(Cl)ccc2N1
REMARK SMILES IDX 11 1 12 2 13 3 14 4 15 5 16 6 17 7 18 8 2 9 1 10 5 13 4 14
REMARK SMILES IDX 3 15 6 17 7 18 10 19 8 20 9 21
REMARK H PARENT 18 11 10 22
REMARK Flexibility Score:   15.900
ROOT
ATOM      1  C   UNL     1      21.817  33.067  10.018  1.00  0.00     0.027 A 
ATOM      2  C   UNL     1      22.061  34.199   9.222  1.00  0.00     0.033 A 
ATOM      3  C   UNL     1      22.565  34.050   7.932  1.00  0.00     0.041 A 
ATOM      4  Cl  UNL     1      22.882  35.442   6.973  1.00  0.00    -0.084 Cl
ATOM      5  C   UNL     1      22.833  32.784   7.423  1.00  0.00     0.023 A 
ATOM      6  C   UNL     1      22.557  31.654   8.196  1.00  0.00     0.028 A 
ATOM      7  C   UNL     1      22.005  31.784   9.477  1.00  0.00     0.050 A 
ENDROOT
BRANCH   7   8
ATOM      8  N   UNL     1      21.668  30.590  10.133  1.00  0.00    -0.324 N 
ATOM      9  C   UNL     1      20.668  30.409  11.053  1.00  0.00     0.246 CG0
ATOM     10  O   UNL     1      20.464  29.283  11.508  1.00  0.00    -0.273 OA
ATOM     11  H   UNL     1      22.062  29.716   9.808  1.00  0.00     0.170 HD
ATOM     12  G   UNL     1      19.773  31.595  11.376  1.00  0.00     0.000 G0
ENDBRANCH   7   8
BRANCH   1  13
ATOM     13  C   UNL     1      21.462  33.268  11.452  1.00  0.00     0.091 C 
BRANCH  13  14
ATOM     14  N   UNL     1      20.546  32.622  12.092  1.00  0.00    -0.273 NA
BRANCH  14  15
ATOM     15  C   UNL     1      19.782  31.600  11.386  1.00  0.00     0.243 CG0
ATOM     16  G   UNL     1      20.668  30.412  11.047  1.00  0.00     0.000 G0
ENDBRANCH  14  15
ENDBRANCH  13  14
BRANCH  13  17
ATOM     17  C   UNL     1      22.195  34.243  12.249  1.00  0.00     0.064 A 
ATOM     18  C   UNL     1      23.479  34.757  12.143  1.00  0.00     0.030 A 
ATOM     19  N   UNL     1      21.647  34.812  13.382  1.00  0.00    -0.360 N 
ATOM     20  C   UNL     1      23.678  35.678  13.202  1.00  0.00     0.020 A 
ATOM     21  C   UNL     1      22.526  35.694  13.949  1.00  0.00     0.083 A 
ATOM     22  H   UNL     1      20.723  34.579  13.723  1.00  0.00     0.166 HD
ENDBRANCH  13  17
ENDBRANCH   1  13
TORSDOF 1
ENDMDL
MODEL 2
REMARK VINA RESULT:    -4.357      2.612      3.315
REMARK INTER + INTRA:          -4.764
REMARK INTER:                  -5.532
REMARK INTRA:                   0.768
REMARK UNBOUND:                 0.867
REMARK SMILES O=C1CN=C(c2ccc[nH]2)c2cc(Cl)ccc2N1
REMARK SMILES IDX 11 1 12 2 13 3 14 4 15 5 16 6 17 7 18 8 2 9 1 10 5 13 4 14
REMARK SMILES IDX 3 15 6 17 7 18 10 19 8 20 9 21
REMARK H PARENT 18 11 10 22
REMARK Flexibility Score:   15.900
ROOT
ATOM      1  C   UNL     1      21.698  31.658   8.669  1.00  0.00     0.027 A 
ATOM      2  C   UNL     1      21.689  31.571   7.267  1.00  0.00     0.033 A 
ATOM      3  C   UNL     1      21.878  30.342   6.642  1.00  0.00     0.041 A 
ATOM      4  Cl  UNL     1      21.889  30.248   4.924  1.00  0.00    -0.084 Cl
ATOM      5  C   UNL     1      22.080  29.192   7.398  1.00  0.00     0.023 A 
ATOM      6  C   UNL     1      22.052  29.266   8.792  1.00  0.00     0.028 A 
ATOM      7  C   UNL     1      21.814  30.487   9.437  1.00  0.00     0.050 A 
ENDROOT
BRANCH   7   8
ATOM      8  N   UNL     1      21.703  30.442  10.834  1.00  0.00    -0.324 N 
ATOM      9  C   UNL     1      20.957  31.272  11.629  1.00  0.00     0.246 CG0
ATOM     10  O   UNL     1      20.925  31.075  12.845  1.00  0.00    -0.273 OA
ATOM     11  H   UNL     1      22.055  29.635  11.335  1.00  0.00     0.170 HD
ATOM     12  G   UNL     1      20.104  32.331  10.950  1.00  0.00     0.000 G0
ENDBRANCH   7   8
BRANCH   1  13
ATOM     13  C   UNL     1      21.684  33.009   9.299  1.00  0.00     0.091 C 
BRANCH  13  14
ATOM     14  N   UNL     1      20.972  33.350  10.320  1.00  0.00    -0.273 NA
BRANCH  14  15
ATOM     15  C   UNL     1      20.121  32.347  10.951  1.00  0.00     0.243 CG0
ATOM     16  G   UNL     1      20.967  31.285  11.634  1.00  0.00     0.000 G0
ENDBRANCH  14  15
ENDBRANCH  13  14
BRANCH  13  17
ATOM     17  C   UNL     1      22.545  34.061   8.773  1.00  0.00     0.064 A 
ATOM     18  C   UNL     1      22.401  34.936   7.706  1.00  0.00     0.030 A 
ATOM     19  N   UNL     1      23.792  34.315   9.311  1.00  0.00    -0.360 N 
ATOM     20  C   UNL     1      23.559  35.750   7.641  1.00  0.00     0.020 A 
ATOM     21  C   UNL     1      24.399  35.346   8.649  1.00  0.00     0.083 A 
ATOM     22  H   UNL     1      24.176  33.786  10.085  1.00  0.00     0.166 HD
ENDBRANCH  13  17
ENDBRANCH   1  13
TORSDOF 1
ENDMDL
MODEL 3
REMARK VINA RESULT:    -4.314      2.506      4.253
REMARK INTER + INTRA:          -4.708
REMARK INTER:                  -5.355
REMARK INTRA:                   0.646
REMARK UNBOUND:                 0.867
REMARK SMILES O=C1CN=C(c2ccc[nH]2)c2cc(Cl)ccc2N1
REMARK SMILES IDX 11 1 12 2 13 3 14 4 15 5 16 6 17 7 18 8 2 9 1 10 5 13 4 14
REMARK SMILES IDX 3 15 6 17 7 18 10 19 8 20 9 21
REMARK H PARENT 18 11 10 22
REMARK Flexibility Score:   15.900
ROOT
ATOM      1  C   UNL     1      22.202  32.877  10.454  1.00  0.00     0.027 A 
ATOM      2  C   UNL     1      22.726  33.839  11.333  1.00  0.00     0.033 A 
ATOM      3  C   UNL     1      22.092  34.095  12.546  1.00  0.00     0.041 A 
ATOM      4  Cl  UNL     1      22.727  35.291  13.607  1.00  0.00    -0.084 Cl
ATOM      5  C   UNL     1      20.937  33.403  12.896  1.00  0.00     0.023 A 
ATOM      6  C   UNL     1      20.434  32.419  12.043  1.00  0.00     0.028 A 
ATOM      7  C   UNL     1      21.087  32.116  10.841  1.00  0.00     0.050 A 
ENDROOT
BRANCH   7   8
ATOM      8  N   UNL     1      20.564  31.043  10.103  1.00  0.00    -0.324 N 
ATOM      9  C   UNL     1      21.254  30.204   9.267  1.00  0.00     0.246 CG0
ATOM     10  O   UNL     1      20.659  29.273   8.722  1.00  0.00    -0.273 OA
ATOM     11  H   UNL     1      19.627  30.714  10.300  1.00  0.00     0.170 HD
ATOM     12  G   UNL     1      22.758  30.393   9.150  1.00  0.00     0.000 G0
ENDBRANCH   7   8
BRANCH   1  13
ATOM     13  C   UNL     1      22.790  32.765   9.088  1.00  0.00     0.091 C 
BRANCH  13  14
ATOM     14  N   UNL     1      23.057  31.659   8.478  1.00  0.00    -0.273 NA
BRANCH  14  15
ATOM     15  C   UNL     1      22.765  30.397   9.148  1.00  0.00     0.243 CG0
ATOM     16  G   UNL     1      21.263  30.190   9.263  1.00  0.00     0.000 G0
ENDBRANCH  14  15
ENDBRANCH  13  14
BRANCH  13  17
ATOM     17  C   UNL     1      23.085  33.972   8.326  1.00  0.00     0.064 A 
ATOM     18  C   UNL     1      22.268  34.938   7.757  1.00  0.00     0.030 A 
ATOM     19  N   UNL     1      24.380  34.320   7.991  1.00  0.00    -0.360 N 
ATOM     20  C   UNL     1      23.093  35.896   7.117  1.00  0.00     0.020 A 
ATOM     21  C   UNL     1      24.394  35.489   7.282  1.00  0.00     0.083 A 
ATOM     22  H   UNL     1      25.184  33.759   8.245  1.00  0.00     0.166 HD
ENDBRANCH  13  17
ENDBRANCH   1  13
TORSDOF 1
ENDMDL
MODEL 4
REMARK VINA RESULT:    -4.084      2.647      5.184
REMARK INTER + INTRA:          -4.411
REMARK INTER:                  -5.060
REMARK INTRA:                   0.650
REMARK UNBOUND:                 0.867
REMARK SMILES O=C1CN=C(c2ccc[nH]2)c2cc(Cl)ccc2N1
REMARK SMILES IDX 11 1 12 2 13 3 14 4 15 5 16 6 17 7 18 8 2 9 1 10 5 13 4 14
REMARK SMILES IDX 3 15 6 17 7 18 10 19 8 20 9 21
REMARK H PARENT 18 11 10 22
REMARK Flexibility Score:   15.900
ROOT
ATOM      1  C   UNL     1      23.016  32.571   8.020  1.00  0.00     0.027 A 
ATOM      2  C   UNL     1      24.151  32.862   7.244  1.00  0.00     0.033 A 
ATOM      3  C   UNL     1      24.518  34.185   7.013  1.00  0.00     0.041 A 
ATOM      4  Cl  UNL     1      25.896  34.533   6.043  1.00  0.00    -0.084 Cl
ATOM      5  C   UNL     1      23.766  35.227   7.544  1.00  0.00     0.023 A 
ATOM      6  C   UNL     1      22.659  34.943   8.347  1.00  0.00     0.028 A 
ATOM      7  C   UNL     1      22.305  33.618   8.630  1.00  0.00     0.050 A 
ENDROOT
BRANCH   7   8
ATOM      8  N   UNL     1      21.242  33.435   9.528  1.00  0.00    -0.324 N 
ATOM      9  C   UNL     1      21.056  32.380  10.381  1.00  0.00     0.246 CG0
ATOM     10  O   UNL     1      20.092  32.386  11.147  1.00  0.00    -0.273 OA
ATOM     11  H   UNL     1      20.617  34.208   9.720  1.00  0.00     0.170 HD
ATOM     12  G   UNL     1      22.126  31.301  10.425  1.00  0.00     0.000 G0
ENDBRANCH   7   8
BRANCH   1  13
ATOM     13  C   UNL     1      22.543  31.159   8.088  1.00  0.00     0.091 C 
BRANCH  13  14
ATOM     14  N   UNL     1      22.145  30.555   9.157  1.00  0.00    -0.273 NA
BRANCH  14  15
ATOM     15  C   UNL     1      22.129  31.291  10.416  1.00  0.00     0.243 CG0
ATOM     16  G   UNL     1      21.072  32.383  10.381  1.00  0.00     0.000 G0
ENDBRANCH  14  15
ENDBRANCH  13  14
BRANCH  13  17
ATOM     17  C   UNL     1      22.481  30.357   6.872  1.00  0.00     0.064 A 
ATOM     18  C   UNL     1      23.258  29.306   6.409  1.00  0.00     0.030 A 
ATOM     19  N   UNL     1      21.553  30.613   5.881  1.00  0.00    -0.360 N 
ATOM     20  C   UNL     1      22.753  28.902   5.147  1.00  0.00     0.020 A 
ATOM     21  C   UNL     1      21.696  29.726   4.849  1.00  0.00     0.083 A 
ATOM     22  H   UNL     1      20.879  31.366   5.939  1.00  0.00     0.166 HD
ENDBRANCH  13  17
ENDBRANCH   1  13
TORSDOF 1
ENDMDL
MODEL 5
REMARK VINA RESULT:    -4.033      3.141      4.540
REMARK INTER + INTRA:          -4.345
REMARK INTER:                  -5.025
REMARK INTRA:                   0.680
REMARK UNBOUND:                 0.867
REMARK SMILES O=C1CN=C(c2ccc[nH]2)c2cc(Cl)ccc2N1
REMARK SMILES IDX 11 1 12 2 13 3 14 4 15 5 16 6 17 7 18 8 2 9 1 10 5 13 4 14
REMARK SMILES IDX 3 15 6 17 7 18 10 19 8 20 9 21
REMARK H PARENT 18 11 10 22
REMARK Flexibility Score:   15.900
ROOT
ATOM      1  C   UNL     1      22.346  32.395   9.596  1.00  0.00     0.027 A 
ATOM      2  C   UNL     1      22.430  33.248  10.710  1.00  0.00     0.033 A 
ATOM      3  C   UNL     1      21.552  33.089  11.778  1.00  0.00     0.041 A 
ATOM      4  Cl  UNL     1      21.646  34.151  13.128  1.00  0.00    -0.084 Cl
ATOM      5  C   UNL     1      20.584  32.090  11.751  1.00  0.00     0.023 A 
ATOM      6  C   UNL     1      20.521  31.216  10.663  1.00  0.00     0.028 A 
ATOM      7  C   UNL     1      21.429  31.332   9.603  1.00  0.00     0.050 A 
ENDROOT
BRANCH   7   8
ATOM      8  N   UNL     1      21.351  30.346   8.607  1.00  0.00    -0.324 N 
ATOM      9  C   UNL     1      22.377  29.881   7.826  1.00  0.00     0.246 CG0
ATOM     10  O   UNL     1      22.159  28.974   7.022  1.00  0.00    -0.273 OA
ATOM     11  H   UNL     1      20.517  29.776   8.536  1.00  0.00     0.170 HD
ATOM     12  G   UNL     1      23.771  30.432   8.078  1.00  0.00     0.000 G0
ENDBRANCH   7   8
BRANCH   1  13
ATOM     13  C   UNL     1      23.169  32.712   8.394  1.00  0.00     0.091 C 
BRANCH  13  14
ATOM     14  N   UNL     1      23.822  31.851   7.688  1.00  0.00    -0.273 NA
BRANCH  14  15
ATOM     15  C   UNL     1      23.773  30.444   8.071  1.00  0.00     0.243 CG0
ATOM     16  G   UNL     1      22.385  29.875   7.830  1.00  0.00     0.000 G0
ENDBRANCH  14  15
ENDBRANCH  13  14
BRANCH  13  17
ATOM     17  C   UNL     1      23.259  34.087   7.920  1.00  0.00     0.064 A 
ATOM     18  C   UNL     1      22.428  34.850   7.112  1.00  0.00     0.030 A 
ATOM     19  N   UNL     1      24.347  34.886   8.213  1.00  0.00    -0.360 N 
ATOM     20  C   UNL     1      23.009  36.134   6.964  1.00  0.00     0.020 A 
ATOM     21  C   UNL     1      24.193  36.127   7.660  1.00  0.00     0.083 A 
ATOM     22  H   UNL     1      25.136  34.563   8.758  1.00  0.00     0.166 HD
ENDBRANCH  13  17
ENDBRANCH   1  13
TORSDOF 1
ENDMDL
MODEL 6
REMARK VINA RESULT:    -3.992      3.279      4.424
REMARK INTER + INTRA:          -4.292
REMARK INTER:                  -5.417
REMARK INTRA:                   1.125
REMARK UNBOUND:                 0.867
REMARK SMILES O=C1CN=C(c2ccc[nH]2)c2cc(Cl)ccc2N1
REMARK SMILES IDX 11 1 12 2 13 3 14 4 15 5 16 6 17 7 18 8 2 9 1 10 5 13 4 14
REMARK SMILES IDX 3 15 6 17 7 18 10 19 8 20 9 21
REMARK H PARENT 18 11 10 22
REMARK Flexibility Score:   15.900
ROOT
ATOM      1  C   UNL     1      22.814  32.623   7.622  1.00  0.00     0.027 A 
ATOM      2  C   UNL     1      22.420  33.964   7.775  1.00  0.00     0.033 A 
ATOM      3  C   UNL     1      23.302  34.991   7.452  1.00  0.00     0.041 A 
ATOM      4  Cl  UNL     1      22.821  36.629   7.664  1.00  0.00    -0.084 Cl
ATOM      5  C   UNL     1      24.578  34.701   6.980  1.00  0.00     0.023 A 
ATOM      6  C   UNL     1      24.961  33.371   6.791  1.00  0.00     0.028 A 
ATOM      7  C   UNL     1      24.068  32.327   7.064  1.00  0.00     0.050 A 
ENDROOT
BRANCH   7   8
ATOM      8  N   UNL     1      24.508  31.033   6.745  1.00  0.00    -0.324 N 
ATOM      9  C   UNL     1      23.732  29.968   6.371  1.00  0.00     0.246 CG0
ATOM     10  O   UNL     1      24.273  28.902   6.076  1.00  0.00    -0.273 OA
ATOM     11  H   UNL     1      25.496  30.866   6.602  1.00  0.00     0.170 HD
ATOM     12  G   UNL     1      22.236  30.194   6.220  1.00  0.00     0.000 G0
ENDBRANCH   7   8
BRANCH   1  13
ATOM     13  C   UNL     1      21.921  31.554   8.154  1.00  0.00     0.091 C 
BRANCH  13  14
ATOM     14  N   UNL     1      21.655  30.439   7.560  1.00  0.00    -0.273 NA
BRANCH  14  15
ATOM     15  C   UNL     1      22.228  30.189   6.243  1.00  0.00     0.243 CG0
ATOM     16  G   UNL     1      23.727  29.958   6.350  1.00  0.00     0.000 G0
ENDBRANCH  14  15
ENDBRANCH  13  14
BRANCH  13  17
ATOM     17  C   UNL     1      21.291  31.720   9.458  1.00  0.00     0.064 A 
ATOM     18  C   UNL     1      21.099  32.832  10.266  1.00  0.00     0.030 A 
ATOM     19  N   UNL     1      20.788  30.644  10.163  1.00  0.00    -0.360 N 
ATOM     20  C   UNL     1      20.431  32.415  11.444  1.00  0.00     0.020 A 
ATOM     21  C   UNL     1      20.249  31.057  11.350  1.00  0.00     0.083 A 
ATOM     22  H   UNL     1      20.836  29.691   9.822  1.00  0.00     0.166 HD
ENDBRANCH  13  17
ENDBRANCH   1  13
TORSDOF 1
ENDMDL
MODEL 7
REMARK VINA RESULT:    -3.903     10.756     12.590
REMARK INTER + INTRA:          -4.177
REMARK INTER:                  -4.836
REMARK INTRA:                   0.659
REMARK UNBOUND:                 0.867
REMARK SMILES O=C1CN=C(c2ccc[nH]2)c2cc(Cl)ccc2N1
REMARK SMILES IDX 11 1 12 2 13 3 14 4 15 5 16 6 17 7 18 8 2 9 1 10 5 13 4 14
REMARK SMILES IDX 3 15 6 17 7 18 10 19 8 20 9 21
REMARK H PARENT 18 11 10 22
REMARK Flexibility Score:   15.900
ROOT
ATOM      1  C   UNL     1      19.748  43.958  12.815  1.00  0.00     0.027 A 
ATOM      2  C   UNL     1      20.435  43.690  14.011  1.00  0.00     0.033 A 
ATOM      3  C   UNL     1      20.465  42.397  14.525  1.00  0.00     0.041 A 
ATOM      4  Cl  UNL     1      21.290  42.082  16.001  1.00  0.00    -0.084 Cl
ATOM      5  C   UNL     1      19.812  41.362  13.864  1.00  0.00     0.023 A 
ATOM      6  C   UNL     1      19.159  41.615  12.656  1.00  0.00     0.028 A 
ATOM      7  C   UNL     1      19.162  42.900  12.099  1.00  0.00     0.050 A 
ENDROOT
BRANCH   7   8
ATOM      8  N   UNL     1      18.568  43.033  10.835  1.00  0.00    -0.324 N 
ATOM      9  C   UNL     1      18.898  43.938   9.860  1.00  0.00     0.246 CG0
ATOM     10  O   UNL     1      18.312  43.898   8.778  1.00  0.00    -0.273 OA
ATOM     11  H   UNL     1      17.947  42.307  10.500  1.00  0.00     0.170 HD
ATOM     12  G   UNL     1      20.065  44.876  10.124  1.00  0.00     0.000 G0
ENDBRANCH   7   8
BRANCH   1  13
ATOM     13  C   UNL     1      19.575  45.378  12.395  1.00  0.00     0.091 C 
BRANCH  13  14
ATOM     14  N   UNL     1      19.696  45.820  11.189  1.00  0.00    -0.273 NA
BRANCH  14  15
ATOM     15  C   UNL     1      20.055  44.885  10.129  1.00  0.00     0.243 CG0
ATOM     16  G   UNL     1      18.900  43.940   9.839  1.00  0.00     0.000 G0
ENDBRANCH  14  15
ENDBRANCH  13  14
BRANCH  13  17
ATOM     17  C   UNL     1      19.215  46.386  13.385  1.00  0.00     0.064 A 
ATOM     18  C   UNL     1      18.023  46.669  14.036  1.00  0.00     0.030 A 
ATOM     19  N   UNL     1      20.120  47.338  13.813  1.00  0.00    -0.360 N 
ATOM     20  C   UNL     1      18.239  47.774  14.897  1.00  0.00     0.020 A 
ATOM     21  C   UNL     1      19.546  48.163  14.740  1.00  0.00     0.083 A 
ATOM     22  H   UNL     1      21.068  47.393  13.461  1.00  0.00     0.166 HD
ENDBRANCH  13  17
ENDBRANCH   1  13
TORSDOF 1
ENDMDL
MODEL 8
REMARK VINA RESULT:    -3.891      8.033      9.664
REMARK INTER + INTRA:          -4.161
REMARK INTER:                  -4.841
REMARK INTRA:                   0.680
REMARK UNBOUND:                 0.867
REMARK SMILES O=C1CN=C(c2ccc[nH]2)c2cc(Cl)ccc2N1
REMARK SMILES IDX 11 1 12 2 13 3 14 4 15 5 16 6 17 7 18 8 2 9 1 10 5 13 4 14
REMARK SMILES IDX 3 15 6 17 7 18 10 19 8 20 9 21
REMARK H PARENT 18 11 10 22
REMARK Flexibility Score:   15.900
ROOT
ATOM      1  C   UNL     1      20.955  41.824  12.848  1.00  0.00     0.027 A 
ATOM      2  C   UNL     1      21.387  42.334  11.612  1.00  0.00     0.033 A 
ATOM      3  C   UNL     1      20.456  42.765  10.671  1.00  0.00     0.041 A 
ATOM      4  Cl  UNL     1      20.992  43.368   9.152  1.00  0.00    -0.084 Cl
ATOM      5  C   UNL     1      19.094  42.692  10.944  1.00  0.00     0.023 A 
ATOM      6  C   UNL     1      18.661  42.221  12.185  1.00  0.00     0.028 A 
ATOM      7  C   UNL     1      19.586  41.829  13.161  1.00  0.00     0.050 A 
ENDROOT
BRANCH   7   8
ATOM      8  N   UNL     1      19.057  41.469  14.410  1.00  0.00    -0.324 N 
ATOM      9  C   UNL     1      19.668  41.593  15.631  1.00  0.00     0.246 CG0
ATOM     10  O   UNL     1      19.052  41.273  16.648  1.00  0.00    -0.273 OA
ATOM     11  H   UNL     1      18.072  41.246  14.487  1.00  0.00     0.170 HD
ATOM     12  G   UNL     1      21.042  42.240  15.677  1.00  0.00     0.000 G0
ENDBRANCH   7   8
BRANCH   1  13
ATOM     13  C   UNL     1      21.962  41.197  13.751  1.00  0.00     0.091 C 
BRANCH  13  14
ATOM     14  N   UNL     1      22.034  41.373  15.027  1.00  0.00    -0.273 NA
BRANCH  14  15
ATOM     15  C   UNL     1      21.057  42.242  15.674  1.00  0.00     0.243 CG0
ATOM     16  G   UNL     1      19.677  41.606  15.644  1.00  0.00     0.000 G0
ENDBRANCH  14  15
ENDBRANCH  13  14
BRANCH  13  17
ATOM     17  C   UNL     1      22.955  40.281  13.202  1.00  0.00     0.064 A 
ATOM     18  C   UNL     1      22.909  38.928  12.901  1.00  0.00     0.030 A 
ATOM     19  N   UNL     1      24.245  40.691  12.925  1.00  0.00    -0.360 N 
ATOM     20  C   UNL     1      24.176  38.542  12.395  1.00  0.00     0.020 A 
ATOM     21  C   UNL     1      24.980  39.655  12.419  1.00  0.00     0.083 A 
ATOM     22  H   UNL     1      24.571  41.635  13.096  1.00  0.00     0.166 HD
ENDBRANCH  13  17
ENDBRANCH   1  13
TORSDOF 1
ENDMDL
MODEL 9
REMARK VINA RESULT:    -3.790      2.360      2.993
REMARK INTER + INTRA:          -4.031
REMARK INTER:                  -4.711
REMARK INTRA:                   0.680
REMARK UNBOUND:                 0.867
REMARK SMILES O=C1CN=C(c2ccc[nH]2)c2cc(Cl)ccc2N1
REMARK SMILES IDX 11 1 12 2 13 3 14 4 15 5 16 6 17 7 18 8 2 9 1 10 5 13 4 14
REMARK SMILES IDX 3 15 6 17 7 18 10 19 8 20 9 21
REMARK H PARENT 18 11 10 22
REMARK Flexibility Score:   15.900
ROOT
ATOM      1  C   UNL     1      21.873  32.375  10.591  1.00  0.00     0.027 A 
ATOM      2  C   UNL     1      21.855  32.421   9.187  1.00  0.00     0.033 A 
ATOM      3  C   UNL     1      21.561  31.274   8.455  1.00  0.00     0.041 A 
ATOM      4  Cl  UNL     1      21.563  31.332   6.736  1.00  0.00    -0.084 Cl
ATOM      5  C   UNL     1      21.285  30.075   9.105  1.00  0.00     0.023 A 
ATOM      6  C   UNL     1      21.264  30.034  10.501  1.00  0.00     0.028 A 
ATOM      7  C   UNL     1      21.510  31.190  11.252  1.00  0.00     0.050 A 
ENDROOT
BRANCH   7   8
ATOM      8  N   UNL     1      21.366  31.071  12.643  1.00  0.00    -0.324 N 
ATOM      9  C   UNL     1      21.007  32.059  13.522  1.00  0.00     0.246 CG0
ATOM     10  O   UNL     1      20.877  31.786  14.716  1.00  0.00    -0.273 OA
ATOM     11  H   UNL     1      21.352  30.150  13.064  1.00  0.00     0.170 HD
ATOM     12  G   UNL     1      20.667  33.428  12.955  1.00  0.00     0.000 G0
ENDBRANCH   7   8
BRANCH   1  13
ATOM     13  C   UNL     1      22.377  33.564  11.336  1.00  0.00     0.091 C 
BRANCH  13  14
ATOM     14  N   UNL     1      21.836  34.067  12.395  1.00  0.00    -0.273 NA
BRANCH  14  15
ATOM     15  C   UNL     1      20.652  33.425  12.953  1.00  0.00     0.243 CG0
ATOM     16  G   UNL     1      21.002  32.055  13.512  1.00  0.00     0.000 G0
ENDBRANCH  14  15
ENDBRANCH  13  14
BRANCH  13  17
ATOM     17  C   UNL     1      23.590  34.238  10.888  1.00  0.00     0.064 A 
ATOM     18  C   UNL     1      23.825  35.525  10.428  1.00  0.00     0.030 A 
ATOM     19  N   UNL     1      24.800  33.576  10.809  1.00  0.00    -0.360 N 
ATOM     20  C   UNL     1      25.203  35.641  10.117  1.00  0.00     0.020 A 
ATOM     21  C   UNL     1      25.780  34.420  10.367  1.00  0.00     0.083 A 
ATOM     22  H   UNL     1      24.908  32.597  11.046  1.00  0.00     0.166 HD
ENDBRANCH  13  17
ENDBRANCH   1  13
TORSDOF 1
ENDMDL
