MODEL 1
REMARK VINA RESULT:    -5.691      0.000      0.000
REMARK INTER + INTRA:          -7.861
REMARK INTER:                  -6.689
REMARK INTRA:                  -1.172
REMARK UNBOUND:                -1.172
REMARK SMILES C[NH+]1CCC(=C(c2ccc(Cl)cc2)c2ccccn2)CC1
REMARK SMILES IDX 6 1 5 2 2 3 3 4 21 5 4 6 20 7 1 8 7 10 8 11 13 12 9 13 12 14
REMARK SMILES IDX 10 15 11 16 14 17 15 18 19 19 16 20 18 21 17 22
REMARK H PARENT 2 9
ROOT
ATOM      1  C   UNL     1      22.800  33.240   8.721  1.00  0.00     0.007 C 
ENDROOT
BRANCH   1   2
ATOM      2  C   UNL     1      22.439  32.868   9.979  1.00  0.00    -0.049 C 
ATOM      3  N   UNL     1      21.221  30.943  11.791  1.00  0.00    -0.337 N 
ATOM      4  C   UNL     1      22.621  30.719  11.240  1.00  0.00     0.266 C 
ATOM      5  C   UNL     1      20.368  31.793  10.853  1.00  0.00     0.266 C 
ATOM      6  C   UNL     1      23.304  32.060  10.936  1.00  0.00     0.093 C 
ATOM      7  C   UNL     1      21.073  33.124  10.597  1.00  0.00     0.093 C 
ATOM      8  C   UNL     1      20.543  29.648  12.130  1.00  0.00     0.332 C 
ATOM      9  H   UNL     1      21.321  31.471  12.668  1.00  0.00     0.347 HD
ENDBRANCH   1   2
BRANCH   1  10
ATOM     10  C   UNL     1      22.810  32.225   7.638  1.00  0.00    -0.016 A 
ATOM     11  C   UNL     1      23.987  31.990   6.913  1.00  0.00     0.010 A 
ATOM     12  C   UNL     1      21.659  31.476   7.347  1.00  0.00     0.010 A 
ATOM     13  C   UNL     1      24.008  31.032   5.897  1.00  0.00     0.021 A 
ATOM     14  C   UNL     1      21.683  30.519   6.329  1.00  0.00     0.021 A 
ATOM     15  C   UNL     1      22.856  30.304   5.608  1.00  0.00     0.041 A 
ATOM     16  Cl  UNL     1      22.881  29.129   4.352  1.00  0.00    -0.084 Cl
ENDBRANCH   1  10
BRANCH   1  17
ATOM     17  C   UNL     1      23.078  34.670   8.406  1.00  0.00     0.071 A 
ATOM     18  C   UNL     1      22.560  35.263   7.259  1.00  0.00     0.029 A 
ATOM     19  N   UNL     1      23.800  35.355   9.334  1.00  0.00    -0.256 NA
ATOM     20  C   UNL     1      22.802  36.617   7.042  1.00  0.00     0.004 A 
ATOM     21  C   UNL     1      24.006  36.671   9.095  1.00  0.00     0.111 A 
ATOM     22  C   UNL     1      23.537  37.338   7.975  1.00  0.00     0.020 A 
ENDBRANCH   1  17
TORSDOF 3
ENDMDL
MODEL 2
REMARK VINA RESULT:    -5.689      2.441      4.634
REMARK INTER + INTRA:          -7.859
REMARK INTER:                  -6.728
REMARK INTRA:                  -1.131
REMARK UNBOUND:                -1.172
REMARK SMILES C[NH+]1CCC(=C(c2ccc(Cl)cc2)c2ccccn2)CC1
REMARK SMILES IDX 6 1 5 2 2 3 3 4 21 5 4 6 20 7 1 8 7 10 8 11 13 12 9 13 12 14
REMARK SMILES IDX 10 15 11 16 14 17 15 18 19 19 16 20 18 21 17 22
REMARK H PARENT 2 9
ROOT
ATOM      1  C   UNL     1      22.614  33.143   8.724  1.00  0.00     0.007 C 
ENDROOT
BRANCH   1   2
ATOM      2  C   UNL     1      22.308  32.774   9.997  1.00  0.00    -0.049 C 
ATOM      3  N   UNL     1      21.210  30.831  11.865  1.00  0.00    -0.337 N 
ATOM      4  C   UNL     1      22.597  30.644  11.269  1.00  0.00     0.266 C 
ATOM      5  C   UNL     1      20.300  31.646  10.949  1.00  0.00     0.266 C 
ATOM      6  C   UNL     1      23.228  32.002  10.931  1.00  0.00     0.093 C 
ATOM      7  C   UNL     1      20.956  32.994  10.658  1.00  0.00     0.093 C 
ATOM      8  C   UNL     1      20.583  29.520  12.238  1.00  0.00     0.332 C 
ATOM      9  H   UNL     1      21.322  31.370  12.734  1.00  0.00     0.347 HD
ENDBRANCH   1   2
BRANCH   1  10
ATOM     10  C   UNL     1      22.910  34.568   8.432  1.00  0.00    -0.016 A 
ATOM     11  C   UNL     1      23.666  35.324   9.340  1.00  0.00     0.010 A 
ATOM     12  C   UNL     1      22.463  35.164   7.244  1.00  0.00     0.010 A 
ATOM     13  C   UNL     1      23.956  36.663   9.070  1.00  0.00     0.021 A 
ATOM     14  C   UNL     1      22.753  36.505   6.977  1.00  0.00     0.021 A 
ATOM     15  C   UNL     1      23.496  37.248   7.892  1.00  0.00     0.041 A 
ATOM     16  Cl  UNL     1      23.847  38.900   7.565  1.00  0.00    -0.084 Cl
ENDBRANCH   1  10
BRANCH   1  17
ATOM     17  C   UNL     1      22.758  32.117   7.653  1.00  0.00     0.071 A 
ATOM     18  C   UNL     1      21.663  31.372   7.225  1.00  0.00     0.029 A 
ATOM     19  N   UNL     1      23.992  32.011   7.089  1.00  0.00    -0.256 NA
ATOM     20  C   UNL     1      21.840  30.467   6.182  1.00  0.00     0.004 A 
ATOM     21  C   UNL     1      24.124  31.130   6.071  1.00  0.00     0.111 A 
ATOM     22  C   UNL     1      23.091  30.342   5.591  1.00  0.00     0.020 A 
ENDBRANCH   1  17
TORSDOF 3
ENDMDL
MODEL 3
REMARK VINA RESULT:    -5.497      2.632      4.861
REMARK INTER + INTRA:          -7.633
REMARK INTER:                  -6.504
REMARK INTRA:                  -1.129
REMARK UNBOUND:                -1.172
REMARK SMILES C[NH+]1CCC(=C(c2ccc(Cl)cc2)c2ccccn2)CC1
REMARK SMILES IDX 6 1 5 2 2 3 3 4 21 5 4 6 20 7 1 8 7 10 8 11 13 12 9 13 12 14
REMARK SMILES IDX 10 15 11 16 14 17 15 18 19 19 16 20 18 21 17 22
REMARK H PARENT 2 9
ROOT
ATOM      1  C   UNL     1      22.327  32.439   8.597  1.00  0.00     0.007 C 
ENDROOT
BRANCH   1   2
ATOM      2  C   UNL     1      21.836  31.925   9.758  1.00  0.00    -0.049 C 
ATOM      3  N   UNL     1      21.745  31.899  12.666  1.00  0.00    -0.337 N 
ATOM      4  C   UNL     1      21.014  32.971  11.872  1.00  0.00     0.266 C 
ATOM      5  C   UNL     1      22.953  31.351  11.910  1.00  0.00     0.266 C 
ATOM      6  C   UNL     1      20.606  32.437  10.492  1.00  0.00     0.093 C 
ATOM      7  C   UNL     1      22.497  30.811  10.556  1.00  0.00     0.093 C 
ATOM      8  C   UNL     1      22.125  32.383  14.035  1.00  0.00     0.332 C 
ATOM      9  H   UNL     1      21.090  31.116  12.794  1.00  0.00     0.347 HD
ENDBRANCH   1   2
BRANCH   1  10
ATOM     10  C   UNL     1      22.742  33.863   8.551  1.00  0.00    -0.016 A 
ATOM     11  C   UNL     1      23.535  34.392   9.579  1.00  0.00     0.010 A 
ATOM     12  C   UNL     1      22.370  34.683   7.475  1.00  0.00     0.010 A 
ATOM     13  C   UNL     1      23.935  35.730   9.541  1.00  0.00     0.021 A 
ATOM     14  C   UNL     1      22.772  36.021   7.440  1.00  0.00     0.021 A 
ATOM     15  C   UNL     1      23.550  36.538   8.473  1.00  0.00     0.041 A 
ATOM     16  Cl  UNL     1      24.039  38.187   8.430  1.00  0.00    -0.084 Cl
ENDBRANCH   1  10
BRANCH   1  17
ATOM     17  C   UNL     1      22.548  31.558   7.415  1.00  0.00     0.071 A 
ATOM     18  C   UNL     1      21.509  30.803   6.882  1.00  0.00     0.029 A 
ATOM     19  N   UNL     1      23.793  31.599   6.866  1.00  0.00    -0.256 NA
ATOM     20  C   UNL     1      21.754  30.042   5.742  1.00  0.00     0.004 A 
ATOM     21  C   UNL     1      23.992  30.855   5.753  1.00  0.00     0.111 A 
ATOM     22  C   UNL     1      23.018  30.067   5.164  1.00  0.00     0.020 A 
ENDBRANCH   1  17
TORSDOF 3
ENDMDL
MODEL 4
REMARK VINA RESULT:    -5.272      2.809      5.097
REMARK INTER + INTRA:          -7.368
REMARK INTER:                  -6.209
REMARK INTRA:                  -1.159
REMARK UNBOUND:                -1.172
REMARK SMILES C[NH+]1CCC(=C(c2ccc(Cl)cc2)c2ccccn2)CC1
REMARK SMILES IDX 6 1 5 2 2 3 3 4 21 5 4 6 20 7 1 8 7 10 8 11 13 12 9 13 12 14
REMARK SMILES IDX 10 15 11 16 14 17 15 18 19 19 16 20 18 21 17 22
REMARK H PARENT 2 9
ROOT
ATOM      1  C   UNL     1      22.435  32.225  10.390  1.00  0.00     0.007 C 
ENDROOT
BRANCH   1   2
ATOM      2  C   UNL     1      22.502  30.977   9.852  1.00  0.00    -0.049 C 
ATOM      3  N   UNL     1      22.292  29.207   7.551  1.00  0.00    -0.337 N 
ATOM      4  C   UNL     1      23.522  30.079   7.756  1.00  0.00     0.266 C 
ATOM      5  C   UNL     1      21.049  29.815   8.195  1.00  0.00     0.266 C 
ATOM      6  C   UNL     1      23.750  30.349   9.250  1.00  0.00     0.093 C 
ATOM      7  C   UNL     1      21.313  30.045   9.682  1.00  0.00     0.093 C 
ATOM      8  C   UNL     1      22.064  28.898   6.100  1.00  0.00     0.332 C 
ATOM      9  H   UNL     1      22.470  28.313   8.026  1.00  0.00     0.347 HD
ENDBRANCH   1   2
BRANCH   1  10
ATOM     10  C   UNL     1      22.671  33.405   9.522  1.00  0.00    -0.016 A 
ATOM     11  C   UNL     1      23.462  34.466   9.986  1.00  0.00     0.010 A 
ATOM     12  C   UNL     1      22.130  33.463   8.229  1.00  0.00     0.010 A 
ATOM     13  C   UNL     1      23.695  35.578   9.173  1.00  0.00     0.021 A 
ATOM     14  C   UNL     1      22.363  34.576   7.418  1.00  0.00     0.021 A 
ATOM     15  C   UNL     1      23.142  35.629   7.895  1.00  0.00     0.041 A 
ATOM     16  Cl  UNL     1      23.424  37.002   6.897  1.00  0.00    -0.084 Cl
ENDBRANCH   1  10
BRANCH   1  17
ATOM     17  C   UNL     1      22.025  32.413  11.811  1.00  0.00     0.071 A 
ATOM     18  C   UNL     1      22.794  31.901  12.851  1.00  0.00     0.029 A 
ATOM     19  N   UNL     1      20.907  33.163  12.014  1.00  0.00    -0.256 NA
ATOM     20  C   UNL     1      22.396  32.156  14.161  1.00  0.00     0.004 A 
ATOM     21  C   UNL     1      20.557  33.398  13.301  1.00  0.00     0.111 A 
ATOM     22  C   UNL     1      21.258  32.918  14.394  1.00  0.00     0.020 A 
ENDBRANCH   1  17
TORSDOF 3
ENDMDL
MODEL 5
REMARK VINA RESULT:    -5.196      2.844      4.879
REMARK INTER + INTRA:          -7.279
REMARK INTER:                  -6.209
REMARK INTRA:                  -1.070
REMARK UNBOUND:                -1.172
REMARK SMILES C[NH+]1CCC(=C(c2ccc(Cl)cc2)c2ccccn2)CC1
REMARK SMILES IDX 6 1 5 2 2 3 3 4 21 5 4 6 20 7 1 8 7 10 8 11 13 12 9 13 12 14
REMARK SMILES IDX 10 15 11 16 14 17 15 18 19 19 16 20 18 21 17 22
REMARK H PARENT 2 9
ROOT
ATOM      1  C   UNL     1      22.612  33.090  10.339  1.00  0.00     0.007 C 
ENDROOT
BRANCH   1   2
ATOM      2  C   UNL     1      22.621  33.180  11.697  1.00  0.00    -0.049 C 
ATOM      3  N   UNL     1      21.769  32.190  14.297  1.00  0.00    -0.337 N 
ATOM      4  C   UNL     1      22.867  31.485  13.516  1.00  0.00     0.266 C 
ATOM      5  C   UNL     1      20.801  32.932  13.380  1.00  0.00     0.266 C 
ATOM      6  C   UNL     1      23.612  32.480  12.614  1.00  0.00     0.093 C 
ATOM      7  C   UNL     1      21.581  33.924  12.520  1.00  0.00     0.093 C 
ATOM      8  C   UNL     1      21.046  31.247  15.214  1.00  0.00     0.332 C 
ATOM      9  H   UNL     1      22.223  32.898  14.890  1.00  0.00     0.347 HD
ENDBRANCH   1   2
BRANCH   1  10
ATOM     10  C   UNL     1      22.912  34.296   9.529  1.00  0.00    -0.016 A 
ATOM     11  C   UNL     1      23.830  35.244  10.002  1.00  0.00     0.010 A 
ATOM     12  C   UNL     1      22.305  34.489   8.279  1.00  0.00     0.010 A 
ATOM     13  C   UNL     1      24.124  36.380   9.243  1.00  0.00     0.021 A 
ATOM     14  C   UNL     1      22.600  35.626   7.521  1.00  0.00     0.021 A 
ATOM     15  C   UNL     1      23.505  36.566   8.008  1.00  0.00     0.041 A 
ATOM     16  Cl  UNL     1      23.863  37.968   7.077  1.00  0.00    -0.084 Cl
ENDBRANCH   1  10
BRANCH   1  17
ATOM     17  C   UNL     1      22.409  31.773   9.671  1.00  0.00     0.071 A 
ATOM     18  C   UNL     1      21.207  31.084   9.798  1.00  0.00     0.029 A 
ATOM     19  N   UNL     1      23.435  31.336   8.890  1.00  0.00    -0.256 NA
ATOM     20  C   UNL     1      21.049  29.887   9.106  1.00  0.00     0.004 A 
ATOM     21  C   UNL     1      23.242  30.174   8.224  1.00  0.00     0.111 A 
ATOM     22  C   UNL     1      22.083  29.420   8.303  1.00  0.00     0.020 A 
ENDBRANCH   1  17
TORSDOF 3
ENDMDL
MODEL 6
REMARK VINA RESULT:    -5.047      1.150      4.931
REMARK INTER + INTRA:          -7.104
REMARK INTER:                  -5.951
REMARK INTRA:                  -1.153
REMARK UNBOUND:                -1.172
REMARK SMILES C[NH+]1CCC(=C(c2ccc(Cl)cc2)c2ccccn2)CC1
REMARK SMILES IDX 6 1 5 2 2 3 3 4 21 5 4 6 20 7 1 8 7 10 8 11 13 12 9 13 12 14
REMARK SMILES IDX 10 15 11 16 14 17 15 18 19 19 16 20 18 21 17 22
REMARK H PARENT 2 9
ROOT
ATOM      1  C   UNL     1      22.426  32.763   8.688  1.00  0.00     0.007 C 
ENDROOT
BRANCH   1   2
ATOM      2  C   UNL     1      22.806  34.070   8.687  1.00  0.00    -0.049 C 
ATOM      3  N   UNL     1      24.709  36.144   7.950  1.00  0.00    -0.337 N 
ATOM      4  C   UNL     1      23.743  35.571   6.924  1.00  0.00     0.266 C 
ATOM      5  C   UNL     1      25.023  35.144   9.060  1.00  0.00     0.266 C 
ATOM      6  C   UNL     1      22.458  35.083   7.607  1.00  0.00     0.093 C 
ATOM      7  C   UNL     1      23.720  34.704   9.724  1.00  0.00     0.093 C 
ATOM      8  C   UNL     1      25.962  36.661   7.306  1.00  0.00     0.332 C 
ATOM      9  H   UNL     1      24.243  36.947   8.392  1.00  0.00     0.347 HD
ENDBRANCH   1   2
BRANCH   1  10
ATOM     10  C   UNL     1      22.712  31.922   7.499  1.00  0.00    -0.016 A 
ATOM     11  C   UNL     1      21.692  31.143   6.934  1.00  0.00     0.010 A 
ATOM     12  C   UNL     1      23.988  31.917   6.916  1.00  0.00     0.010 A 
ATOM     13  C   UNL     1      21.951  30.354   5.811  1.00  0.00     0.021 A 
ATOM     14  C   UNL     1      24.244  31.126   5.793  1.00  0.00     0.021 A 
ATOM     15  C   UNL     1      23.225  30.347   5.248  1.00  0.00     0.041 A 
ATOM     16  Cl  UNL     1      23.544  29.369   3.868  1.00  0.00    -0.084 Cl
ENDBRANCH   1  10
BRANCH   1  17
ATOM     17  C   UNL     1      21.826  32.152   9.908  1.00  0.00     0.071 A 
ATOM     18  C   UNL     1      20.597  32.586  10.395  1.00  0.00     0.029 A 
ATOM     19  N   UNL     1      22.517  31.116  10.458  1.00  0.00    -0.256 NA
ATOM     20  C   UNL     1      20.055  31.942  11.504  1.00  0.00     0.004 A 
ATOM     21  C   UNL     1      21.954  30.507  11.527  1.00  0.00     0.111 A 
ATOM     22  C   UNL     1      20.742  30.882  12.082  1.00  0.00     0.020 A 
ENDBRANCH   1  17
TORSDOF 3
ENDMDL
MODEL 7
REMARK VINA RESULT:    -5.008      3.589      5.503
REMARK INTER + INTRA:          -7.057
REMARK INTER:                  -5.896
REMARK INTRA:                  -1.161
REMARK UNBOUND:                -1.172
REMARK SMILES C[NH+]1CCC(=C(c2ccc(Cl)cc2)c2ccccn2)CC1
REMARK SMILES IDX 6 1 5 2 2 3 3 4 21 5 4 6 20 7 1 8 7 10 8 11 13 12 9 13 12 14
REMARK SMILES IDX 10 15 11 16 14 17 15 18 19 19 16 20 18 21 17 22
REMARK H PARENT 2 9
ROOT
ATOM      1  C   UNL     1      22.292  32.176  10.791  1.00  0.00     0.007 C 
ENDROOT
BRANCH   1   2
ATOM      2  C   UNL     1      22.331  30.933  10.239  1.00  0.00    -0.049 C 
ATOM      3  N   UNL     1      22.238  29.208   7.897  1.00  0.00    -0.337 N 
ATOM      4  C   UNL     1      23.497  29.991   8.241  1.00  0.00     0.266 C 
ATOM      5  C   UNL     1      20.979  29.892   8.423  1.00  0.00     0.266 C 
ATOM      6  C   UNL     1      23.589  30.228   9.754  1.00  0.00     0.093 C 
ATOM      7  C   UNL     1      21.105  30.086   9.933  1.00  0.00     0.093 C 
ATOM      8  C   UNL     1      22.140  28.932   6.425  1.00  0.00     0.332 C 
ATOM      9  H   UNL     1      22.307  28.299   8.370  1.00  0.00     0.347 HD
ENDBRANCH   1   2
BRANCH   1  10
ATOM     10  C   UNL     1      21.982  32.320  12.235  1.00  0.00    -0.016 A 
ATOM     11  C   UNL     1      20.960  33.190  12.645  1.00  0.00     0.010 A 
ATOM     12  C   UNL     1      22.682  31.577  13.197  1.00  0.00     0.010 A 
ATOM     13  C   UNL     1      20.656  33.327  14.002  1.00  0.00     0.021 A 
ATOM     14  C   UNL     1      22.376  31.717  14.553  1.00  0.00     0.021 A 
ATOM     15  C   UNL     1      21.367  32.593  14.949  1.00  0.00     0.041 A 
ATOM     16  Cl  UNL     1      20.996  32.767  16.619  1.00  0.00    -0.084 Cl
ENDBRANCH   1  10
BRANCH   1  17
ATOM     17  C   UNL     1      22.663  33.373   9.984  1.00  0.00     0.071 A 
ATOM     18  C   UNL     1      22.031  33.644   8.775  1.00  0.00     0.029 A 
ATOM     19  N   UNL     1      23.594  34.199  10.535  1.00  0.00    -0.256 NA
ATOM     20  C   UNL     1      22.374  34.806   8.089  1.00  0.00     0.004 A 
ATOM     21  C   UNL     1      23.894  35.324   9.846  1.00  0.00     0.111 A 
ATOM     22  C   UNL     1      23.322  35.665   8.632  1.00  0.00     0.020 A 
ENDBRANCH   1  17
TORSDOF 3
ENDMDL
MODEL 8
REMARK VINA RESULT:    -5.005      2.532      5.835
REMARK INTER + INTRA:          -7.054
REMARK INTER:                  -5.940
REMARK INTRA:                  -1.114
REMARK UNBOUND:                -1.172
REMARK SMILES C[NH+]1CCC(=C(c2ccc(Cl)cc2)c2ccccn2)CC1
REMARK SMILES IDX 6 1 5 2 2 3 3 4 21 5 4 6 20 7 1 8 7 10 8 11 13 12 9 13 12 14
REMARK SMILES IDX 10 15 11 16 14 17 15 18 19 19 16 20 18 21 17 22
REMARK H PARENT 2 9
ROOT
ATOM      1  C   UNL     1      22.607  32.643   8.599  1.00  0.00     0.007 C 
ENDROOT
BRANCH   1   2
ATOM      2  C   UNL     1      22.726  33.999   8.588  1.00  0.00    -0.049 C 
ATOM      3  N   UNL     1      24.281  36.391   8.016  1.00  0.00    -0.337 N 
ATOM      4  C   UNL     1      23.598  35.619   6.898  1.00  0.00     0.266 C 
ATOM      5  C   UNL     1      24.620  35.495   9.204  1.00  0.00     0.266 C 
ATOM      6  C   UNL     1      22.346  34.901   7.423  1.00  0.00     0.093 C 
ATOM      7  C   UNL     1      23.345  34.821   9.707  1.00  0.00     0.093 C 
ATOM      8  C   UNL     1      25.490  37.131   7.523  1.00  0.00     0.332 C 
ATOM      9  H   UNL     1      23.612  37.096   8.352  1.00  0.00     0.347 HD
ENDBRANCH   1   2
BRANCH   1  10
ATOM     10  C   UNL     1      22.131  31.966   9.831  1.00  0.00    -0.016 A 
ATOM     11  C   UNL     1      20.844  32.233  10.320  1.00  0.00     0.010 A 
ATOM     12  C   UNL     1      22.945  31.040  10.500  1.00  0.00     0.010 A 
ATOM     13  C   UNL     1      20.384  31.595  11.475  1.00  0.00     0.021 A 
ATOM     14  C   UNL     1      22.482  30.403  11.655  1.00  0.00     0.021 A 
ATOM     15  C   UNL     1      21.206  30.686  12.138  1.00  0.00     0.041 A 
ATOM     16  Cl  UNL     1      20.641  29.906  13.563  1.00  0.00    -0.084 Cl
ENDBRANCH   1  10
BRANCH   1  17
ATOM     17  C   UNL     1      22.850  31.853   7.359  1.00  0.00     0.071 A 
ATOM     18  C   UNL     1      24.106  31.826   6.762  1.00  0.00     0.029 A 
ATOM     19  N   UNL     1      21.796  31.122   6.902  1.00  0.00    -0.256 NA
ATOM     20  C   UNL     1      24.293  31.026   5.638  1.00  0.00     0.004 A 
ATOM     21  C   UNL     1      22.018  30.348   5.814  1.00  0.00     0.111 A 
ATOM     22  C   UNL     1      23.232  30.271   5.153  1.00  0.00     0.020 A 
ENDBRANCH   1  17
TORSDOF 3
ENDMDL
MODEL 9
REMARK VINA RESULT:    -4.762      2.984      5.152
REMARK INTER + INTRA:          -6.769
REMARK INTER:                  -5.597
REMARK INTRA:                  -1.172
REMARK UNBOUND:                -1.172
REMARK SMILES C[NH+]1CCC(=C(c2ccc(Cl)cc2)c2ccccn2)CC1
REMARK SMILES IDX 6 1 5 2 2 3 3 4 21 5 4 6 20 7 1 8 7 10 8 11 13 12 9 13 12 14
REMARK SMILES IDX 10 15 11 16 14 17 15 18 19 19 16 20 18 21 17 22
REMARK H PARENT 2 9
ROOT
ATOM      1  C   UNL     1      22.600  32.056   8.987  1.00  0.00     0.007 C 
ENDROOT
BRANCH   1   2
ATOM      2  C   UNL     1      22.901  31.042   8.132  1.00  0.00    -0.049 C 
ATOM      3  N   UNL     1      22.956  29.948   5.436  1.00  0.00    -0.337 N 
ATOM      4  C   UNL     1      23.984  30.976   5.881  1.00  0.00     0.266 C 
ATOM      5  C   UNL     1      21.645  30.080   6.207  1.00  0.00     0.266 C 
ATOM      6  C   UNL     1      24.222  30.881   7.395  1.00  0.00     0.093 C 
ATOM      7  C   UNL     1      21.927  29.956   7.703  1.00  0.00     0.093 C 
ATOM      8  C   UNL     1      22.728  29.995   3.953  1.00  0.00     0.332 C 
ATOM      9  H   UNL     1      23.340  29.019   5.652  1.00  0.00     0.347 HD
ENDBRANCH   1   2
BRANCH   1  10
ATOM     10  C   UNL     1      22.179  31.736  10.374  1.00  0.00    -0.016 A 
ATOM     11  C   UNL     1      20.972  32.247  10.873  1.00  0.00     0.010 A 
ATOM     12  C   UNL     1      22.964  30.905  11.187  1.00  0.00     0.010 A 
ATOM     13  C   UNL     1      20.565  31.946  12.174  1.00  0.00     0.021 A 
ATOM     14  C   UNL     1      22.554  30.605  12.489  1.00  0.00     0.021 A 
ATOM     15  C   UNL     1      21.359  31.129  12.977  1.00  0.00     0.041 A 
ATOM     16  Cl  UNL     1      20.859  30.764  14.582  1.00  0.00    -0.084 Cl
ENDBRANCH   1  10
BRANCH   1  17
ATOM     17  C   UNL     1      22.793  33.476   8.575  1.00  0.00     0.071 A 
ATOM     18  C   UNL     1      23.535  34.354   9.358  1.00  0.00     0.029 A 
ATOM     19  N   UNL     1      22.259  33.824   7.372  1.00  0.00    -0.256 NA
ATOM     20  C   UNL     1      23.733  35.652   8.897  1.00  0.00     0.004 A 
ATOM     21  C   UNL     1      22.480  35.092   6.952  1.00  0.00     0.111 A 
ATOM     22  C   UNL     1      23.198  36.032   7.672  1.00  0.00     0.020 A 
ENDBRANCH   1  17
TORSDOF 3
ENDMDL
