MODEL 1
REMARK VINA RESULT:    -6.080      0.000      0.000
REMARK INTER + INTRA:          -7.058
REMARK INTER:                  -6.790
REMARK INTRA:                  -0.268
REMARK UNBOUND:                -0.268
REMARK SMILES Clc1ccccc1-c1nc(-c2ccncc2)no1
REMARK SMILES IDX 1 1 2 2 3 3 4 4 5 5 6 6 7 7 8 8 9 9 18 10 10 11 17 12 11 13
REMARK SMILES IDX 12 14 16 15 13 16 15 17 14 18
REMARK H PARENT
ROOT
ATOM      1  Cl  UNL     1      22.156  33.950   8.698  1.00  0.00    -0.083 Cl
ATOM      2  C   UNL     1      21.718  32.279   8.591  1.00  0.00     0.053 A 
ATOM      3  C   UNL     1      21.868  31.677   7.333  1.00  0.00     0.021 A 
ATOM      4  C   UNL     1      21.591  30.322   7.156  1.00  0.00     0.002 A 
ATOM      5  C   UNL     1      21.168  29.559   8.238  1.00  0.00     0.001 A 
ATOM      6  C   UNL     1      21.016  30.155   9.492  1.00  0.00     0.015 A 
ATOM      7  C   UNL     1      21.275  31.526   9.691  1.00  0.00     0.058 A 
ENDROOT
BRANCH   7   8
ATOM      8  C   UNL     1      21.076  32.060  11.034  1.00  0.00     0.259 A 
ATOM      9  N   UNL     1      21.570  31.635  12.177  1.00  0.00    -0.187 NA
ATOM     10  O   UNL     1      20.189  33.084  11.188  1.00  0.00    -0.334 OA
ATOM     11  C   UNL     1      20.980  32.479  13.095  1.00  0.00     0.202 A 
ATOM     12  N   UNL     1      20.135  33.369  12.551  1.00  0.00    -0.057 NA
BRANCH  11  13
ATOM     13  C   UNL     1      21.257  32.386  14.523  1.00  0.00     0.026 A 
ATOM     14  C   UNL     1      21.441  33.535  15.298  1.00  0.00     0.032 A 
ATOM     15  C   UNL     1      21.346  31.139  15.145  1.00  0.00     0.032 A 
ATOM     16  C   UNL     1      21.701  33.384  16.650  1.00  0.00     0.111 A 
ATOM     17  C   UNL     1      21.611  31.092  16.502  1.00  0.00     0.111 A 
ATOM     18  N   UNL     1      21.790  32.188  17.268  1.00  0.00    -0.265 NA
ENDBRANCH  11  13
ENDBRANCH   7   8
TORSDOF 2
ENDMDL
MODEL 2
REMARK VINA RESULT:    -5.652      1.918      6.602
REMARK INTER + INTRA:          -6.581
REMARK INTER:                  -6.320
REMARK INTRA:                  -0.260
REMARK UNBOUND:                -0.268
REMARK SMILES Clc1ccccc1-c1nc(-c2ccncc2)no1
REMARK SMILES IDX 1 1 2 2 3 3 4 4 5 5 6 6 7 7 8 8 9 9 18 10 10 11 17 12 11 13
REMARK SMILES IDX 12 14 16 15 13 16 15 17 14 18
REMARK H PARENT
ROOT
ATOM      1  Cl  UNL     1      22.217  34.957  14.204  1.00  0.00    -0.083 Cl
ATOM      2  C   UNL     1      21.924  33.459  15.020  1.00  0.00     0.053 A 
ATOM      3  C   UNL     1      22.203  33.436  16.395  1.00  0.00     0.021 A 
ATOM      4  C   UNL     1      21.953  32.291  17.151  1.00  0.00     0.002 A 
ATOM      5  C   UNL     1      21.414  31.165  16.539  1.00  0.00     0.001 A 
ATOM      6  C   UNL     1      21.136  31.185  15.170  1.00  0.00     0.015 A 
ATOM      7  C   UNL     1      21.396  32.324  14.383  1.00  0.00     0.058 A 
ENDROOT
BRANCH   7   8
ATOM      8  C   UNL     1      21.082  32.244  12.961  1.00  0.00     0.259 A 
ATOM      9  N   UNL     1      21.631  31.493  12.030  1.00  0.00    -0.187 NA
ATOM     10  O   UNL     1      20.163  33.119  12.461  1.00  0.00    -0.334 OA
ATOM     11  C   UNL     1      20.978  31.901  10.885  1.00  0.00     0.202 A 
ATOM     12  N   UNL     1      20.086  32.883  11.090  1.00  0.00    -0.057 NA
BRANCH  11  13
ATOM     13  C   UNL     1      21.257  31.312   9.582  1.00  0.00     0.026 A 
ATOM     14  C   UNL     1      21.757  32.086   8.531  1.00  0.00     0.032 A 
ATOM     15  C   UNL     1      21.026  29.952   9.359  1.00  0.00     0.032 A 
ATOM     16  C   UNL     1      22.003  31.470   7.315  1.00  0.00     0.111 A 
ATOM     17  C   UNL     1      21.303  29.429   8.108  1.00  0.00     0.111 A 
ATOM     18  N   UNL     1      21.787  30.159   7.083  1.00  0.00    -0.265 NA
ENDBRANCH  11  13
ENDBRANCH   7   8
TORSDOF 2
ENDMDL
MODEL 3
REMARK VINA RESULT:    -5.548      4.589      6.734
REMARK INTER + INTRA:          -6.464
REMARK INTER:                  -6.136
REMARK INTRA:                  -0.328
REMARK UNBOUND:                -0.268
REMARK SMILES Clc1ccccc1-c1nc(-c2ccncc2)no1
REMARK SMILES IDX 1 1 2 2 3 3 4 4 5 5 6 6 7 7 8 8 9 9 18 10 10 11 17 12 11 13
REMARK SMILES IDX 12 14 16 15 13 16 15 17 14 18
REMARK H PARENT
ROOT
ATOM      1  Cl  UNL     1      24.736  36.960   9.797  1.00  0.00    -0.083 Cl
ATOM      2  C   UNL     1      23.840  37.649   8.486  1.00  0.00     0.053 A 
ATOM      3  C   UNL     1      23.943  39.038   8.326  1.00  0.00     0.021 A 
ATOM      4  C   UNL     1      23.300  39.680   7.268  1.00  0.00     0.002 A 
ATOM      5  C   UNL     1      22.556  38.936   6.359  1.00  0.00     0.001 A 
ATOM      6  C   UNL     1      22.451  37.552   6.516  1.00  0.00     0.015 A 
ATOM      7  C   UNL     1      23.078  36.884   7.587  1.00  0.00     0.058 A 
ENDROOT
BRANCH   7   8
ATOM      8  C   UNL     1      22.901  35.438   7.673  1.00  0.00     0.259 A 
ATOM      9  N   UNL     1      22.139  34.742   8.489  1.00  0.00    -0.187 NA
ATOM     10  O   UNL     1      23.684  34.652   6.881  1.00  0.00    -0.334 OA
ATOM     11  C   UNL     1      22.441  33.440   8.150  1.00  0.00     0.202 A 
ATOM     12  N   UNL     1      23.371  33.330   7.188  1.00  0.00    -0.057 NA
BRANCH  11  13
ATOM     13  C   UNL     1      21.802  32.302   8.799  1.00  0.00     0.026 A 
ATOM     14  C   UNL     1      21.208  32.429  10.058  1.00  0.00     0.032 A 
ATOM     15  C   UNL     1      21.773  31.056   8.169  1.00  0.00     0.032 A 
ATOM     16  C   UNL     1      20.616  31.312  10.625  1.00  0.00     0.111 A 
ATOM     17  C   UNL     1      21.157  29.999   8.817  1.00  0.00     0.111 A 
ATOM     18  N   UNL     1      20.577  30.101  10.030  1.00  0.00    -0.265 NA
ENDBRANCH  11  13
ENDBRANCH   7   8
TORSDOF 2
ENDMDL
MODEL 4
REMARK VINA RESULT:    -5.348      4.933      7.256
REMARK INTER + INTRA:          -6.242
REMARK INTER:                  -5.953
REMARK INTRA:                  -0.289
REMARK UNBOUND:                -0.268
REMARK SMILES Clc1ccccc1-c1nc(-c2ccncc2)no1
REMARK SMILES IDX 1 1 2 2 3 3 4 4 5 5 6 6 7 7 8 8 9 9 18 10 10 11 17 12 11 13
REMARK SMILES IDX 12 14 16 15 13 16 15 17 14 18
REMARK H PARENT
ROOT
ATOM      1  Cl  UNL     1      22.011  33.388  10.958  1.00  0.00    -0.083 Cl
ATOM      2  C   UNL     1      21.815  32.314   9.615  1.00  0.00     0.053 A 
ATOM      3  C   UNL     1      21.258  31.059   9.899  1.00  0.00     0.021 A 
ATOM      4  C   UNL     1      21.013  30.143   8.877  1.00  0.00     0.002 A 
ATOM      5  C   UNL     1      21.317  30.479   7.563  1.00  0.00     0.001 A 
ATOM      6  C   UNL     1      21.873  31.728   7.276  1.00  0.00     0.015 A 
ATOM      7  C   UNL     1      22.145  32.663   8.294  1.00  0.00     0.058 A 
ENDROOT
BRANCH   7   8
ATOM      8  C   UNL     1      22.736  33.936   7.897  1.00  0.00     0.259 A 
ATOM      9  N   UNL     1      22.248  35.152   8.016  1.00  0.00    -0.187 NA
ATOM     10  O   UNL     1      23.919  33.905   7.219  1.00  0.00    -0.334 OA
ATOM     11  C   UNL     1      23.211  35.928   7.407  1.00  0.00     0.202 A 
ATOM     12  N   UNL     1      24.239  35.224   6.905  1.00  0.00    -0.057 NA
BRANCH  11  13
ATOM     13  C   UNL     1      23.098  37.379   7.319  1.00  0.00     0.026 A 
ATOM     14  C   UNL     1      23.657  38.207   8.297  1.00  0.00     0.032 A 
ATOM     15  C   UNL     1      22.422  37.969   6.249  1.00  0.00     0.032 A 
ATOM     16  C   UNL     1      23.517  39.578   8.159  1.00  0.00     0.111 A 
ATOM     17  C   UNL     1      22.335  39.350   6.201  1.00  0.00     0.111 A 
ATOM     18  N   UNL     1      22.869  40.166   7.132  1.00  0.00    -0.265 NA
ENDBRANCH  11  13
ENDBRANCH   7   8
TORSDOF 2
ENDMDL
MODEL 5
REMARK VINA RESULT:    -5.266      1.951      2.525
REMARK INTER + INTRA:          -6.150
REMARK INTER:                  -5.835
REMARK INTRA:                  -0.314
REMARK UNBOUND:                -0.268
REMARK SMILES Clc1ccccc1-c1nc(-c2ccncc2)no1
REMARK SMILES IDX 1 1 2 2 3 3 4 4 5 5 6 6 7 7 8 8 9 9 18 10 10 11 17 12 11 13
REMARK SMILES IDX 12 14 16 15 13 16 15 17 14 18
REMARK H PARENT
ROOT
ATOM      1  Cl  UNL     1      23.665  30.885   9.209  1.00  0.00    -0.083 Cl
ATOM      2  C   UNL     1      23.419  32.471   8.559  1.00  0.00     0.053 A 
ATOM      3  C   UNL     1      24.099  32.766   7.369  1.00  0.00     0.021 A 
ATOM      4  C   UNL     1      23.927  33.999   6.740  1.00  0.00     0.002 A 
ATOM      5  C   UNL     1      23.067  34.941   7.294  1.00  0.00     0.001 A 
ATOM      6  C   UNL     1      22.389  34.650   8.480  1.00  0.00     0.015 A 
ATOM      7  C   UNL     1      22.561  33.418   9.142  1.00  0.00     0.058 A 
ENDROOT
BRANCH   7   8
ATOM      8  C   UNL     1      21.818  33.211  10.381  1.00  0.00     0.259 A 
ATOM      9  N   UNL     1      22.272  33.075  11.608  1.00  0.00    -0.187 NA
ATOM     10  O   UNL     1      20.469  33.033  10.293  1.00  0.00    -0.334 OA
ATOM     11  C   UNL     1      21.123  32.838  12.333  1.00  0.00     0.202 A 
ATOM     12  N   UNL     1      20.008  32.799  11.586  1.00  0.00    -0.057 NA
BRANCH  11  13
ATOM     13  C   UNL     1      21.144  32.642  13.777  1.00  0.00     0.026 A 
ATOM     14  C   UNL     1      21.227  33.729  14.652  1.00  0.00     0.032 A 
ATOM     15  C   UNL     1      21.080  31.354  14.314  1.00  0.00     0.032 A 
ATOM     16  C   UNL     1      21.242  33.480  16.015  1.00  0.00     0.111 A 
ATOM     17  C   UNL     1      21.102  31.209  15.690  1.00  0.00     0.111 A 
ATOM     18  N   UNL     1      21.181  32.243  16.551  1.00  0.00    -0.265 NA
ENDBRANCH  11  13
ENDBRANCH   7   8
TORSDOF 2
ENDMDL
MODEL 6
REMARK VINA RESULT:    -5.099      2.205      3.068
REMARK INTER + INTRA:          -5.963
REMARK INTER:                  -5.658
REMARK INTRA:                  -0.305
REMARK UNBOUND:                -0.268
REMARK SMILES Clc1ccccc1-c1nc(-c2ccncc2)no1
REMARK SMILES IDX 1 1 2 2 3 3 4 4 5 5 6 6 7 7 8 8 9 9 18 10 10 11 17 12 11 13
REMARK SMILES IDX 12 14 16 15 13 16 15 17 14 18
REMARK H PARENT
ROOT
ATOM      1  Cl  UNL     1      23.010  33.509  12.008  1.00  0.00    -0.083 Cl
ATOM      2  C   UNL     1      22.057  32.166  11.474  1.00  0.00     0.053 A 
ATOM      3  C   UNL     1      21.979  31.971  10.087  1.00  0.00     0.021 A 
ATOM      4  C   UNL     1      21.278  30.887   9.561  1.00  0.00     0.002 A 
ATOM      5  C   UNL     1      20.655  29.987  10.418  1.00  0.00     0.001 A 
ATOM      6  C   UNL     1      20.729  30.179  11.800  1.00  0.00     0.015 A 
ATOM      7  C   UNL     1      21.418  31.276  12.354  1.00  0.00     0.058 A 
ENDROOT
BRANCH   7   8
ATOM      8  C   UNL     1      21.430  31.397  13.808  1.00  0.00     0.259 A 
ATOM      9  N   UNL     1      21.003  32.386  14.562  1.00  0.00    -0.187 NA
ATOM     10  O   UNL     1      22.046  30.414  14.524  1.00  0.00    -0.334 OA
ATOM     11  C   UNL     1      21.340  31.968  15.833  1.00  0.00     0.202 A 
ATOM     12  N   UNL     1      21.976  30.786  15.864  1.00  0.00    -0.057 NA
BRANCH  11  13
ATOM     13  C   UNL     1      21.033  32.760  17.017  1.00  0.00     0.026 A 
ATOM     14  C   UNL     1      20.162  33.852  16.949  1.00  0.00     0.032 A 
ATOM     15  C   UNL     1      21.609  32.439  18.248  1.00  0.00     0.032 A 
ATOM     16  C   UNL     1      19.908  34.566  18.108  1.00  0.00     0.111 A 
ATOM     17  C   UNL     1      21.292  33.215  19.350  1.00  0.00     0.111 A 
ATOM     18  N   UNL     1      20.454  34.271  19.306  1.00  0.00    -0.265 NA
ENDBRANCH  11  13
ENDBRANCH   7   8
TORSDOF 2
ENDMDL
MODEL 7
REMARK VINA RESULT:    -5.001      4.557      6.196
REMARK INTER + INTRA:          -5.853
REMARK INTER:                  -5.619
REMARK INTRA:                  -0.234
REMARK UNBOUND:                -0.268
REMARK SMILES Clc1ccccc1-c1nc(-c2ccncc2)no1
REMARK SMILES IDX 1 1 2 2 3 3 4 4 5 5 6 6 7 7 8 8 9 9 18 10 10 11 17 12 11 13
REMARK SMILES IDX 12 14 16 15 13 16 15 17 14 18
REMARK H PARENT
ROOT
ATOM      1  Cl  UNL     1      21.076  32.926  11.039  1.00  0.00    -0.083 Cl
ATOM      2  C   UNL     1      21.356  31.938   9.645  1.00  0.00     0.053 A 
ATOM      3  C   UNL     1      20.978  30.591   9.751  1.00  0.00     0.021 A 
ATOM      4  C   UNL     1      21.116  29.728   8.666  1.00  0.00     0.002 A 
ATOM      5  C   UNL     1      21.626  30.206   7.464  1.00  0.00     0.001 A 
ATOM      6  C   UNL     1      22.004  31.546   7.355  1.00  0.00     0.015 A 
ATOM      7  C   UNL     1      21.889  32.434   8.443  1.00  0.00     0.058 A 
ENDROOT
BRANCH   7   8
ATOM      8  C   UNL     1      22.321  33.812   8.235  1.00  0.00     0.259 A 
ATOM      9  N   UNL     1      23.070  34.572   9.004  1.00  0.00    -0.187 NA
ATOM     10  O   UNL     1      21.827  34.478   7.152  1.00  0.00    -0.334 OA
ATOM     11  C   UNL     1      23.073  35.776   8.331  1.00  0.00     0.202 A 
ATOM     12  N   UNL     1      22.335  35.773   7.210  1.00  0.00    -0.057 NA
BRANCH  11  13
ATOM     13  C   UNL     1      23.811  36.935   8.818  1.00  0.00     0.026 A 
ATOM     14  C   UNL     1      24.019  38.053   8.004  1.00  0.00     0.032 A 
ATOM     15  C   UNL     1      24.326  36.948  10.116  1.00  0.00     0.032 A 
ATOM     16  C   UNL     1      24.727  39.124   8.523  1.00  0.00     0.111 A 
ATOM     17  C   UNL     1      25.021  38.066  10.542  1.00  0.00     0.111 A 
ATOM     18  N   UNL     1      25.231  39.154   9.774  1.00  0.00    -0.265 NA
ENDBRANCH  11  13
ENDBRANCH   7   8
TORSDOF 2
ENDMDL
MODEL 8
REMARK VINA RESULT:    -4.996      9.993     11.186
REMARK INTER + INTRA:          -5.848
REMARK INTER:                  -5.596
REMARK INTRA:                  -0.252
REMARK UNBOUND:                -0.268
REMARK SMILES Clc1ccccc1-c1nc(-c2ccncc2)no1
REMARK SMILES IDX 1 1 2 2 3 3 4 4 5 5 6 6 7 7 8 8 9 9 18 10 10 11 17 12 11 13
REMARK SMILES IDX 12 14 16 15 13 16 15 17 14 18
REMARK H PARENT
ROOT
ATOM      1  Cl  UNL     1      19.323  45.846  13.381  1.00  0.00    -0.083 Cl
ATOM      2  C   UNL     1      19.134  45.161  11.803  1.00  0.00     0.053 A 
ATOM      3  C   UNL     1      19.010  46.071  10.742  1.00  0.00     0.021 A 
ATOM      4  C   UNL     1      18.905  45.618   9.428  1.00  0.00     0.002 A 
ATOM      5  C   UNL     1      18.930  44.253   9.165  1.00  0.00     0.001 A 
ATOM      6  C   UNL     1      19.051  43.345  10.219  1.00  0.00     0.015 A 
ATOM      7  C   UNL     1      19.143  43.778  11.557  1.00  0.00     0.058 A 
ENDROOT
BRANCH   7   8
ATOM      8  C   UNL     1      19.256  42.754  12.589  1.00  0.00     0.259 A 
ATOM      9  N   UNL     1      20.170  42.616  13.525  1.00  0.00    -0.187 NA
ATOM     10  O   UNL     1      18.367  41.721  12.561  1.00  0.00    -0.334 OA
ATOM     11  C   UNL     1      19.797  41.441  14.143  1.00  0.00     0.202 A 
ATOM     12  N   UNL     1      18.718  40.859  13.598  1.00  0.00    -0.057 NA
BRANCH  11  13
ATOM     13  C   UNL     1      20.531  40.896  15.279  1.00  0.00     0.026 A 
ATOM     14  C   UNL     1      20.173  41.219  16.591  1.00  0.00     0.032 A 
ATOM     15  C   UNL     1      21.612  40.035  15.072  1.00  0.00     0.032 A 
ATOM     16  C   UNL     1      20.907  40.669  17.629  1.00  0.00     0.111 A 
ATOM     17  C   UNL     1      22.283  39.538  16.176  1.00  0.00     0.111 A 
ATOM     18  N   UNL     1      21.953  39.836  17.449  1.00  0.00    -0.265 NA
ENDBRANCH  11  13
ENDBRANCH   7   8
TORSDOF 2
ENDMDL
MODEL 9
REMARK VINA RESULT:    -4.882      9.576     10.785
REMARK INTER + INTRA:          -5.721
REMARK INTER:                  -5.389
REMARK INTRA:                  -0.331
REMARK UNBOUND:                -0.268
REMARK SMILES Clc1ccccc1-c1nc(-c2ccncc2)no1
REMARK SMILES IDX 1 1 2 2 3 3 4 4 5 5 6 6 7 7 8 8 9 9 18 10 10 11 17 12 11 13
REMARK SMILES IDX 12 14 16 15 13 16 15 17 14 18
REMARK H PARENT
ROOT
ATOM      1  Cl  UNL     1      19.709  45.429  13.368  1.00  0.00    -0.083 Cl
ATOM      2  C   UNL     1      19.291  44.826  11.799  1.00  0.00     0.053 A 
ATOM      3  C   UNL     1      18.806  45.769  10.881  1.00  0.00     0.021 A 
ATOM      4  C   UNL     1      18.490  45.392   9.576  1.00  0.00     0.002 A 
ATOM      5  C   UNL     1      18.665  44.071   9.179  1.00  0.00     0.001 A 
ATOM      6  C   UNL     1      19.146  43.130  10.091  1.00  0.00     0.015 A 
ATOM      7  C   UNL     1      19.456  43.484  11.420  1.00  0.00     0.058 A 
ENDROOT
BRANCH   7   8
ATOM      8  C   UNL     1      19.942  42.428  12.301  1.00  0.00     0.259 A 
ATOM      9  N   UNL     1      21.107  41.817  12.300  1.00  0.00    -0.187 NA
ATOM     10  O   UNL     1      19.070  41.903  13.208  1.00  0.00    -0.334 OA
ATOM     11  C   UNL     1      20.959  40.878  13.300  1.00  0.00     0.202 A 
ATOM     12  N   UNL     1      19.747  40.886  13.877  1.00  0.00    -0.057 NA
BRANCH  11  13
ATOM     13  C   UNL     1      22.033  39.966  13.673  1.00  0.00     0.026 A 
ATOM     14  C   UNL     1      22.076  39.381  14.941  1.00  0.00     0.032 A 
ATOM     15  C   UNL     1      23.046  39.660  12.761  1.00  0.00     0.032 A 
ATOM     16  C   UNL     1      23.121  38.522  15.238  1.00  0.00     0.111 A 
ATOM     17  C   UNL     1      24.048  38.790  13.151  1.00  0.00     0.111 A 
ATOM     18  N   UNL     1      24.107  38.214  14.369  1.00  0.00    -0.265 NA
ENDBRANCH  11  13
ENDBRANCH   7   8
TORSDOF 2
ENDMDL
