MODEL 1
REMARK VINA RESULT:    -5.830      0.000      0.000
REMARK INTER + INTRA:          -7.171
REMARK INTER:                  -6.853
REMARK INTRA:                  -0.319
REMARK UNBOUND:                -0.319
REMARK SMILES Cc1nc(NCc2ccccc2)c2cc[nH]c2n1
REMARK SMILES IDX 5 1 4 3 2 4 3 5 18 6 17 7 13 8 16 9 14 10 15 11 1 12 6 14
REMARK SMILES IDX 7 15 8 16 12 17 9 18 11 19 10 20
REMARK H PARENT 5 2 16 13
ROOT
ATOM      1  N   UNL     1      22.388  33.318   8.191  1.00  0.00    -0.365 N 
ATOM      2  H   UNL     1      21.786  33.807   7.540  1.00  0.00     0.162 HD
ENDROOT
BRANCH   1   3
ATOM      3  C   UNL     1      21.839  32.107   8.614  1.00  0.00     0.139 A 
ATOM      4  C   UNL     1      20.882  30.773  10.286  1.00  0.00     0.130 A 
ATOM      5  N   UNL     1      21.400  31.958   9.887  1.00  0.00    -0.216 NA
ATOM      6  N   UNL     1      20.717  29.672   9.529  1.00  0.00    -0.215 NA
ATOM      7  C   UNL     1      21.166  29.853   8.280  1.00  0.00     0.143 A 
ATOM      8  C   UNL     1      21.729  31.002   7.752  1.00  0.00     0.061 A 
ATOM      9  N   UNL     1      21.140  28.899   7.299  1.00  0.00    -0.346 N 
ATOM     10  C   UNL     1      22.056  30.709   6.395  1.00  0.00     0.033 A 
ATOM     11  C   UNL     1      21.679  29.406   6.144  1.00  0.00     0.085 A 
ATOM     12  C   UNL     1      20.399  30.695  11.702  1.00  0.00     0.090 C 
ATOM     13  H   UNL     1      20.778  27.967   7.435  1.00  0.00     0.167 HD
ENDBRANCH   1   3
BRANCH   1  14
ATOM     14  C   UNL     1      22.934  34.152   9.245  1.00  0.00     0.150 C 
BRANCH  14  15
ATOM     15  C   UNL     1      23.238  35.522   8.680  1.00  0.00    -0.029 A 
ATOM     16  C   UNL     1      23.980  36.454   9.417  1.00  0.00     0.005 A 
ATOM     17  C   UNL     1      22.752  35.887   7.416  1.00  0.00     0.005 A 
ATOM     18  C   UNL     1      24.243  37.721   8.893  1.00  0.00     0.000 A 
ATOM     19  C   UNL     1      23.015  37.154   6.894  1.00  0.00     0.000 A 
ATOM     20  C   UNL     1      23.763  38.070   7.632  1.00  0.00     0.000 A 
ENDBRANCH  14  15
ENDBRANCH   1  14
TORSDOF 3
ENDMDL
MODEL 2
REMARK VINA RESULT:    -5.522      0.972      2.979
REMARK INTER + INTRA:          -6.810
REMARK INTER:                  -6.509
REMARK INTRA:                  -0.300
REMARK UNBOUND:                -0.319
REMARK SMILES Cc1nc(NCc2ccccc2)c2cc[nH]c2n1
REMARK SMILES IDX 5 1 4 3 2 4 3 5 18 6 17 7 13 8 16 9 14 10 15 11 1 12 6 14
REMARK SMILES IDX 7 15 8 16 12 17 9 18 11 19 10 20
REMARK H PARENT 5 2 16 13
ROOT
ATOM      1  N   UNL     1      22.064  33.779   8.868  1.00  0.00    -0.365 N 
ATOM      2  H   UNL     1      22.540  34.010   9.732  1.00  0.00     0.162 HD
ENDROOT
BRANCH   1   3
ATOM      3  C   UNL     1      21.701  32.434   8.805  1.00  0.00     0.139 A 
ATOM      4  C   UNL     1      21.452  30.442   7.596  1.00  0.00     0.130 A 
ATOM      5  N   UNL     1      21.821  31.743   7.645  1.00  0.00    -0.216 NA
ATOM      6  N   UNL     1      20.977  29.702   8.615  1.00  0.00    -0.215 NA
ATOM      7  C   UNL     1      20.867  30.417   9.742  1.00  0.00     0.143 A 
ATOM      8  C   UNL     1      21.192  31.751   9.922  1.00  0.00     0.061 A 
ATOM      9  N   UNL     1      20.398  29.926  10.930  1.00  0.00    -0.346 N 
ATOM     10  C   UNL     1      20.895  32.062  11.281  1.00  0.00     0.033 A 
ATOM     11  C   UNL     1      20.409  30.917  11.878  1.00  0.00     0.085 A 
ATOM     12  C   UNL     1      21.636  29.743   6.284  1.00  0.00     0.090 C 
ATOM     13  H   UNL     1      20.091  28.974  11.060  1.00  0.00     0.167 HD
ENDBRANCH   1   3
BRANCH   1  14
ATOM     14  C   UNL     1      22.699  34.307   7.675  1.00  0.00     0.150 C 
BRANCH  14  15
ATOM     15  C   UNL     1      23.105  35.742   7.928  1.00  0.00    -0.029 A 
ATOM     16  C   UNL     1      22.758  36.757   7.027  1.00  0.00     0.005 A 
ATOM     17  C   UNL     1      23.864  36.070   9.061  1.00  0.00     0.005 A 
ATOM     18  C   UNL     1      23.149  38.076   7.262  1.00  0.00     0.000 A 
ATOM     19  C   UNL     1      24.256  37.389   9.294  1.00  0.00     0.000 A 
ATOM     20  C   UNL     1      23.896  38.392   8.395  1.00  0.00     0.000 A 
ENDBRANCH  14  15
ENDBRANCH   1  14
TORSDOF 3
ENDMDL
MODEL 3
REMARK VINA RESULT:    -5.509      2.339      6.063
REMARK INTER + INTRA:          -6.793
REMARK INTER:                  -6.128
REMARK INTRA:                  -0.665
REMARK UNBOUND:                -0.319
REMARK SMILES Cc1nc(NCc2ccccc2)c2cc[nH]c2n1
REMARK SMILES IDX 5 1 4 3 2 4 3 5 18 6 17 7 13 8 16 9 14 10 15 11 1 12 6 14
REMARK SMILES IDX 7 15 8 16 12 17 9 18 11 19 10 20
REMARK H PARENT 5 2 16 13
ROOT
ATOM      1  N   UNL     1      20.126  30.492  11.353  1.00  0.00    -0.365 N 
ATOM      2  H   UNL     1      19.134  30.338  11.216  1.00  0.00     0.162 HD
ENDROOT
BRANCH   1   3
ATOM      3  C   UNL     1      20.795  30.744  10.155  1.00  0.00     0.139 A 
ATOM      4  C   UNL     1      21.598  30.023   8.075  1.00  0.00     0.130 A 
ATOM      5  N   UNL     1      20.934  29.767   9.226  1.00  0.00    -0.216 NA
ATOM      6  N   UNL     1      22.144  31.198   7.706  1.00  0.00    -0.215 NA
ATOM      7  C   UNL     1      21.992  32.137   8.648  1.00  0.00     0.143 A 
ATOM      8  C   UNL     1      21.353  32.001   9.869  1.00  0.00     0.061 A 
ATOM      9  N   UNL     1      22.461  33.418   8.549  1.00  0.00    -0.346 N 
ATOM     10  C   UNL     1      21.456  33.264  10.524  1.00  0.00     0.033 A 
ATOM     11  C   UNL     1      22.141  34.118   9.685  1.00  0.00     0.085 A 
ATOM     12  C   UNL     1      21.691  28.898   7.091  1.00  0.00     0.090 C 
ATOM     13  H   UNL     1      22.969  33.769   7.751  1.00  0.00     0.167 HD
ENDBRANCH   1   3
BRANCH   1  14
ATOM     14  C   UNL     1      20.766  29.529  12.229  1.00  0.00     0.150 C 
BRANCH  14  15
ATOM     15  C   UNL     1      21.565  30.272  13.276  1.00  0.00    -0.029 A 
ATOM     16  C   UNL     1      22.948  30.450  13.132  1.00  0.00     0.005 A 
ATOM     17  C   UNL     1      20.933  30.771  14.424  1.00  0.00     0.005 A 
ATOM     18  C   UNL     1      23.680  31.125  14.110  1.00  0.00     0.000 A 
ATOM     19  C   UNL     1      21.666  31.445  15.402  1.00  0.00     0.000 A 
ATOM     20  C   UNL     1      23.040  31.624  15.243  1.00  0.00     0.000 A 
ENDBRANCH  14  15
ENDBRANCH   1  14
TORSDOF 3
ENDMDL
MODEL 4
REMARK VINA RESULT:    -5.491      3.681      6.716
REMARK INTER + INTRA:          -6.772
REMARK INTER:                  -6.316
REMARK INTRA:                  -0.456
REMARK UNBOUND:                -0.319
REMARK SMILES Cc1nc(NCc2ccccc2)c2cc[nH]c2n1
REMARK SMILES IDX 5 1 4 3 2 4 3 5 18 6 17 7 13 8 16 9 14 10 15 11 1 12 6 14
REMARK SMILES IDX 7 15 8 16 12 17 9 18 11 19 10 20
REMARK H PARENT 5 2 16 13
ROOT
ATOM      1  N   UNL     1      21.807  30.898  12.523  1.00  0.00    -0.365 N 
ATOM      2  H   UNL     1      22.173  29.958  12.615  1.00  0.00     0.162 HD
ENDROOT
BRANCH   1   3
ATOM      3  C   UNL     1      21.767  31.575  13.741  1.00  0.00     0.139 A 
ATOM      4  C   UNL     1      21.652  31.558  16.082  1.00  0.00     0.130 A 
ATOM      5  N   UNL     1      21.704  30.887  14.908  1.00  0.00    -0.216 NA
ATOM      6  N   UNL     1      21.683  32.894  16.247  1.00  0.00    -0.215 NA
ATOM      7  C   UNL     1      21.741  33.540  15.076  1.00  0.00     0.143 A 
ATOM      8  C   UNL     1      21.781  32.978  13.811  1.00  0.00     0.061 A 
ATOM      9  N   UNL     1      21.768  34.901  14.941  1.00  0.00    -0.346 N 
ATOM     10  C   UNL     1      21.829  34.062  12.886  1.00  0.00     0.033 A 
ATOM     11  C   UNL     1      21.822  35.235  13.611  1.00  0.00     0.085 A 
ATOM     12  C   UNL     1      21.605  30.726  17.327  1.00  0.00     0.090 C 
ATOM     13  H   UNL     1      21.744  35.542  15.720  1.00  0.00     0.167 HD
ENDBRANCH   1   3
BRANCH   1  14
ATOM     14  C   UNL     1      20.601  30.995  11.720  1.00  0.00     0.150 C 
BRANCH  14  15
ATOM     15  C   UNL     1      20.987  31.042  10.258  1.00  0.00    -0.029 A 
ATOM     16  C   UNL     1      20.950  29.884   9.469  1.00  0.00     0.005 A 
ATOM     17  C   UNL     1      21.416  32.245   9.680  1.00  0.00     0.005 A 
ATOM     18  C   UNL     1      21.321  29.934   8.124  1.00  0.00     0.000 A 
ATOM     19  C   UNL     1      21.787  32.293   8.335  1.00  0.00     0.000 A 
ATOM     20  C   UNL     1      21.738  31.137   7.557  1.00  0.00     0.000 A 
ENDBRANCH  14  15
ENDBRANCH   1  14
TORSDOF 3
ENDMDL
MODEL 5
REMARK VINA RESULT:    -5.466      3.607      6.782
REMARK INTER + INTRA:          -6.743
REMARK INTER:                  -6.376
REMARK INTRA:                  -0.367
REMARK UNBOUND:                -0.319
REMARK SMILES Cc1nc(NCc2ccccc2)c2cc[nH]c2n1
REMARK SMILES IDX 5 1 4 3 2 4 3 5 18 6 17 7 13 8 16 9 14 10 15 11 1 12 6 14
REMARK SMILES IDX 7 15 8 16 12 17 9 18 11 19 10 20
REMARK H PARENT 5 2 16 13
ROOT
ATOM      1  N   UNL     1      20.781  32.632  11.893  1.00  0.00    -0.365 N 
ATOM      2  H   UNL     1      19.773  32.533  11.863  1.00  0.00     0.162 HD
ENDROOT
BRANCH   1   3
ATOM      3  C   UNL     1      21.222  33.233  13.071  1.00  0.00     0.139 A 
ATOM      4  C   UNL     1      22.038  35.100  14.228  1.00  0.00     0.130 A 
ATOM      5  N   UNL     1      21.599  34.535  13.079  1.00  0.00    -0.216 NA
ATOM      6  N   UNL     1      22.129  34.507  15.433  1.00  0.00    -0.215 NA
ATOM      7  C   UNL     1      21.754  33.222  15.386  1.00  0.00     0.143 A 
ATOM      8  C   UNL     1      21.304  32.522  14.280  1.00  0.00     0.061 A 
ATOM      9  N   UNL     1      21.760  32.372  16.459  1.00  0.00    -0.346 N 
ATOM     10  C   UNL     1      21.037  31.193  14.721  1.00  0.00     0.033 A 
ATOM     11  C   UNL     1      21.325  31.131  16.069  1.00  0.00     0.085 A 
ATOM     12  C   UNL     1      22.415  36.549  14.160  1.00  0.00     0.090 C 
ATOM     13  H   UNL     1      22.052  32.643  17.386  1.00  0.00     0.167 HD
ENDBRANCH   1   3
BRANCH   1  14
ATOM     14  C   UNL     1      21.367  33.155  10.672  1.00  0.00     0.150 C 
BRANCH  14  15
ATOM     15  C   UNL     1      21.384  32.061   9.628  1.00  0.00    -0.029 A 
ATOM     16  C   UNL     1      21.026  30.747   9.958  1.00  0.00     0.005 A 
ATOM     17  C   UNL     1      21.790  32.345   8.315  1.00  0.00     0.005 A 
ATOM     18  C   UNL     1      21.059  29.741   8.990  1.00  0.00     0.000 A 
ATOM     19  C   UNL     1      21.823  31.338   7.350  1.00  0.00     0.000 A 
ATOM     20  C   UNL     1      21.456  30.037   7.687  1.00  0.00     0.000 A 
ENDBRANCH  14  15
ENDBRANCH   1  14
TORSDOF 3
ENDMDL
MODEL 6
REMARK VINA RESULT:    -5.424     11.449     14.104
REMARK INTER + INTRA:          -6.694
REMARK INTER:                  -6.078
REMARK INTRA:                  -0.616
REMARK UNBOUND:                -0.319
REMARK SMILES Cc1nc(NCc2ccccc2)c2cc[nH]c2n1
REMARK SMILES IDX 5 1 4 3 2 4 3 5 18 6 17 7 13 8 16 9 14 10 15 11 1 12 6 14
REMARK SMILES IDX 7 15 8 16 12 17 9 18 11 19 10 20
REMARK H PARENT 5 2 16 13
ROOT
ATOM      1  N   UNL     1      19.744  46.092  13.254  1.00  0.00    -0.365 N 
ATOM      2  H   UNL     1      19.636  46.898  12.649  1.00  0.00     0.162 HD
ENDROOT
BRANCH   1   3
ATOM      3  C   UNL     1      19.521  44.890  12.582  1.00  0.00     0.139 A 
ATOM      4  C   UNL     1      19.579  42.549  12.516  1.00  0.00     0.130 A 
ATOM      5  N   UNL     1      19.787  43.706  13.186  1.00  0.00    -0.216 NA
ATOM      6  N   UNL     1      19.091  42.418  11.268  1.00  0.00    -0.215 NA
ATOM      7  C   UNL     1      18.845  43.606  10.701  1.00  0.00     0.143 A 
ATOM      8  C   UNL     1      19.029  44.856  11.267  1.00  0.00     0.061 A 
ATOM      9  N   UNL     1      18.360  43.776   9.433  1.00  0.00    -0.346 N 
ATOM     10  C   UNL     1      18.638  45.810  10.281  1.00  0.00     0.033 A 
ATOM     11  C   UNL     1      18.229  45.114   9.163  1.00  0.00     0.085 A 
ATOM     12  C   UNL     1      19.876  41.282  13.260  1.00  0.00     0.090 C 
ATOM     13  H   UNL     1      18.146  43.013   8.809  1.00  0.00     0.167 HD
ENDBRANCH   1   3
BRANCH   1  14
ATOM     14  C   UNL     1      19.083  46.216  14.540  1.00  0.00     0.150 C 
BRANCH  14  15
ATOM     15  C   UNL     1      17.867  47.102  14.384  1.00  0.00    -0.029 A 
ATOM     16  C   UNL     1      17.804  48.062  13.365  1.00  0.00     0.005 A 
ATOM     17  C   UNL     1      16.794  46.991  15.281  1.00  0.00     0.005 A 
ATOM     18  C   UNL     1      16.683  48.884  13.237  1.00  0.00     0.000 A 
ATOM     19  C   UNL     1      15.675  47.815  15.152  1.00  0.00     0.000 A 
ATOM     20  C   UNL     1      15.619  48.760  14.129  1.00  0.00     0.000 A 
ENDBRANCH  14  15
ENDBRANCH   1  14
TORSDOF 3
ENDMDL
MODEL 7
REMARK VINA RESULT:    -5.364      2.841      4.954
REMARK INTER + INTRA:          -6.623
REMARK INTER:                  -6.101
REMARK INTRA:                  -0.522
REMARK UNBOUND:                -0.319
REMARK SMILES Cc1nc(NCc2ccccc2)c2cc[nH]c2n1
REMARK SMILES IDX 5 1 4 3 2 4 3 5 18 6 17 7 13 8 16 9 14 10 15 11 1 12 6 14
REMARK SMILES IDX 7 15 8 16 12 17 9 18 11 19 10 20
REMARK H PARENT 5 2 16 13
ROOT
ATOM      1  N   UNL     1      20.932  32.984   9.910  1.00  0.00    -0.365 N 
ATOM      2  H   UNL     1      20.039  33.410   9.690  1.00  0.00     0.162 HD
ENDROOT
BRANCH   1   3
ATOM      3  C   UNL     1      21.117  32.817  11.281  1.00  0.00     0.139 A 
ATOM      4  C   UNL     1      21.642  33.691  13.391  1.00  0.00     0.130 A 
ATOM      5  N   UNL     1      21.452  33.872  12.064  1.00  0.00    -0.216 NA
ATOM      6  N   UNL     1      21.509  32.537  14.074  1.00  0.00    -0.215 NA
ATOM      7  C   UNL     1      21.184  31.517  13.269  1.00  0.00     0.143 A 
ATOM      8  C   UNL     1      20.978  31.563  11.901  1.00  0.00     0.061 A 
ATOM      9  N   UNL     1      21.000  30.227  13.687  1.00  0.00    -0.346 N 
ATOM     10  C   UNL     1      20.663  30.234  11.492  1.00  0.00     0.033 A 
ATOM     11  C   UNL     1      20.682  29.433  12.615  1.00  0.00     0.085 A 
ATOM     12  C   UNL     1      21.988  34.910  14.191  1.00  0.00     0.090 C 
ATOM     13  H   UNL     1      21.097  29.931  14.647  1.00  0.00     0.167 HD
ENDBRANCH   1   3
BRANCH   1  14
ATOM     14  C   UNL     1      22.059  33.555   9.196  1.00  0.00     0.150 C 
BRANCH  14  15
ATOM     15  C   UNL     1      22.483  32.601   8.102  1.00  0.00    -0.029 A 
ATOM     16  C   UNL     1      23.736  32.723   7.488  1.00  0.00     0.005 A 
ATOM     17  C   UNL     1      21.608  31.594   7.666  1.00  0.00     0.005 A 
ATOM     18  C   UNL     1      24.113  31.846   6.470  1.00  0.00     0.000 A 
ATOM     19  C   UNL     1      21.987  30.719   6.647  1.00  0.00     0.000 A 
ATOM     20  C   UNL     1      23.240  30.845   6.050  1.00  0.00     0.000 A 
ENDBRANCH  14  15
ENDBRANCH   1  14
TORSDOF 3
ENDMDL
MODEL 8
REMARK VINA RESULT:    -5.288      2.780      4.284
REMARK INTER + INTRA:          -6.534
REMARK INTER:                  -5.992
REMARK INTRA:                  -0.542
REMARK UNBOUND:                -0.319
REMARK SMILES Cc1nc(NCc2ccccc2)c2cc[nH]c2n1
REMARK SMILES IDX 5 1 4 3 2 4 3 5 18 6 17 7 13 8 16 9 14 10 15 11 1 12 6 14
REMARK SMILES IDX 7 15 8 16 12 17 9 18 11 19 10 20
REMARK H PARENT 5 2 16 13
ROOT
ATOM      1  N   UNL     1      22.024  33.787  12.046  1.00  0.00    -0.365 N 
ATOM      2  H   UNL     1      21.789  34.693  12.433  1.00  0.00     0.162 HD
ENDROOT
BRANCH   1   3
ATOM      3  C   UNL     1      21.819  32.752  12.958  1.00  0.00     0.139 A 
ATOM      4  C   UNL     1      21.937  31.898  15.137  1.00  0.00     0.130 A 
ATOM      5  N   UNL     1      22.129  32.917  14.267  1.00  0.00    -0.216 NA
ATOM      6  N   UNL     1      21.426  30.684  14.855  1.00  0.00    -0.215 NA
ATOM      7  C   UNL     1      21.136  30.555  13.553  1.00  0.00     0.143 A 
ATOM      8  C   UNL     1      21.299  31.508  12.562  1.00  0.00     0.061 A 
ATOM      9  N   UNL     1      20.620  29.425  12.981  1.00  0.00    -0.346 N 
ATOM     10  C   UNL     1      20.862  30.907  11.345  1.00  0.00     0.033 A 
ATOM     11  C   UNL     1      20.446  29.624  11.635  1.00  0.00     0.085 A 
ATOM     12  C   UNL     1      22.284  32.166  16.569  1.00  0.00     0.090 C 
ATOM     13  H   UNL     1      20.412  28.582  13.496  1.00  0.00     0.167 HD
ENDBRANCH   1   3
BRANCH   1  14
ATOM     14  C   UNL     1      23.290  33.748  11.338  1.00  0.00     0.150 C 
BRANCH  14  15
ATOM     15  C   UNL     1      23.065  34.180   9.906  1.00  0.00    -0.029 A 
ATOM     16  C   UNL     1      23.491  35.438   9.460  1.00  0.00     0.005 A 
ATOM     17  C   UNL     1      22.398  33.332   9.010  1.00  0.00     0.005 A 
ATOM     18  C   UNL     1      23.267  35.833   8.140  1.00  0.00     0.000 A 
ATOM     19  C   UNL     1      22.174  33.729   7.691  1.00  0.00     0.000 A 
ATOM     20  C   UNL     1      22.610  34.979   7.256  1.00  0.00     0.000 A 
ENDBRANCH  14  15
ENDBRANCH   1  14
TORSDOF 3
ENDMDL
MODEL 9
REMARK VINA RESULT:    -5.285      3.598      5.916
REMARK INTER + INTRA:          -6.531
REMARK INTER:                  -5.795
REMARK INTRA:                  -0.736
REMARK UNBOUND:                -0.319
REMARK SMILES Cc1nc(NCc2ccccc2)c2cc[nH]c2n1
REMARK SMILES IDX 5 1 4 3 2 4 3 5 18 6 17 7 13 8 16 9 14 10 15 11 1 12 6 14
REMARK SMILES IDX 7 15 8 16 12 17 9 18 11 19 10 20
REMARK H PARENT 5 2 16 13
ROOT
ATOM      1  N   UNL     1      20.546  30.179  12.051  1.00  0.00    -0.365 N 
ATOM      2  H   UNL     1      19.723  29.666  12.344  1.00  0.00     0.162 HD
ENDROOT
BRANCH   1   3
ATOM      3  C   UNL     1      21.453  30.368  13.094  1.00  0.00     0.139 A 
ATOM      4  C   UNL     1      21.909  30.911  15.327  1.00  0.00     0.130 A 
ATOM      5  N   UNL     1      21.016  30.716  14.329  1.00  0.00    -0.216 NA
ATOM      6  N   UNL     1      23.247  30.769  15.249  1.00  0.00    -0.215 NA
ATOM      7  C   UNL     1      23.641  30.430  14.015  1.00  0.00     0.143 A 
ATOM      8  C   UNL     1      22.837  30.219  12.908  1.00  0.00     0.061 A 
ATOM      9  N   UNL     1      24.943  30.236  13.643  1.00  0.00    -0.346 N 
ATOM     10  C   UNL     1      23.709  29.889  11.829  1.00  0.00     0.033 A 
ATOM     11  C   UNL     1      25.001  29.905  12.313  1.00  0.00     0.085 A 
ATOM     12  C   UNL     1      21.347  31.272  16.668  1.00  0.00     0.090 C 
ATOM     13  H   UNL     1      25.726  30.334  14.272  1.00  0.00     0.167 HD
ENDBRANCH   1   3
BRANCH   1  14
ATOM     14  C   UNL     1      20.265  31.356  11.251  1.00  0.00     0.150 C 
BRANCH  14  15
ATOM     15  C   UNL     1      20.926  31.202   9.900  1.00  0.00    -0.029 A 
ATOM     16  C   UNL     1      21.463  32.311   9.232  1.00  0.00     0.005 A 
ATOM     17  C   UNL     1      20.985  29.944   9.282  1.00  0.00     0.005 A 
ATOM     18  C   UNL     1      22.060  32.161   7.979  1.00  0.00     0.000 A 
ATOM     19  C   UNL     1      21.580  29.796   8.029  1.00  0.00     0.000 A 
ATOM     20  C   UNL     1      22.119  30.905   7.378  1.00  0.00     0.000 A 
ENDBRANCH  14  15
ENDBRANCH   1  14
TORSDOF 3
ENDMDL
