MODEL 1
REMARK VINA RESULT:    -4.902      0.000      0.000
REMARK INTER + INTRA:          -6.139
REMARK INTER:                  -5.905
REMARK INTRA:                  -0.234
REMARK UNBOUND:                -0.234
REMARK SMILES NC(=[NH2+])N/N=C/c1c(Cl)cccc1Cl
REMARK SMILES IDX 5 1 4 2 2 3 1 4 3 8 6 11 7 12 8 13 13 14 10 15 12 16 11 17
REMARK SMILES IDX 9 18 14 19
REMARK H PARENT 1 5 1 6 4 7 3 9 3 10
ROOT
ATOM      1  N   UNL     1      20.827  33.283  11.422  1.00  0.00    -0.121 NA
ENDROOT
BRANCH   1   2
ATOM      2  N   UNL     1      20.576  32.845  12.688  1.00  0.00    -0.157 N 
ATOM      3  C   UNL     1      20.836  33.702  13.717  1.00  0.00     0.362 C 
ATOM      4  N   UNL     1      20.589  33.348  14.983  1.00  0.00    -0.289 N 
ATOM      5  H   UNL     1      20.784  33.984  15.745  1.00  0.00     0.256 HD
ATOM      6  H   UNL     1      20.200  32.446  15.218  1.00  0.00     0.256 HD
ATOM      7  H   UNL     1      20.207  31.921  12.897  1.00  0.00     0.295 HD
BRANCH   3   8
ATOM      8  N   UNL     1      21.346  34.910  13.460  1.00  0.00    -0.289 N 
ATOM      9  H   UNL     1      22.080  34.949  12.757  1.00  0.00     0.256 HD
ATOM     10  H   UNL     1      21.057  35.758  13.923  1.00  0.00     0.256 HD
ENDBRANCH   3   8
ENDBRANCH   1   2
BRANCH   1  11
ATOM     11  C   UNL     1      21.810  32.694  10.812  1.00  0.00     0.161 C 
BRANCH  11  12
ATOM     12  C   UNL     1      21.620  31.841   9.614  1.00  0.00     0.033 A 
ATOM     13  C   UNL     1      21.912  32.382   8.348  1.00  0.00     0.051 A 
ATOM     14  C   UNL     1      21.155  30.516   9.690  1.00  0.00     0.051 A 
ATOM     15  C   UNL     1      21.748  31.614   7.190  1.00  0.00     0.021 A 
ATOM     16  C   UNL     1      20.995  29.756   8.524  1.00  0.00     0.021 A 
ATOM     17  C   UNL     1      21.290  30.302   7.277  1.00  0.00     0.003 A 
ATOM     18  Cl  UNL     1      22.519  33.988   8.133  1.00  0.00    -0.084 Cl
ATOM     19  Cl  UNL     1      20.703  29.738  11.170  1.00  0.00    -0.084 Cl
ENDBRANCH  11  12
ENDBRANCH   1  11
TORSDOF 4
ENDMDL
MODEL 2
REMARK VINA RESULT:    -4.876      0.084      2.457
REMARK INTER + INTRA:          -6.107
REMARK INTER:                  -5.856
REMARK INTRA:                  -0.251
REMARK UNBOUND:                -0.234
REMARK SMILES NC(=[NH2+])N/N=C/c1c(Cl)cccc1Cl
REMARK SMILES IDX 5 1 4 2 2 3 1 4 3 8 6 11 7 12 8 13 13 14 10 15 12 16 11 17
REMARK SMILES IDX 9 18 14 19
REMARK H PARENT 1 5 1 6 4 7 3 9 3 10
ROOT
ATOM      1  N   UNL     1      20.910  33.275  11.443  1.00  0.00    -0.121 NA
ENDROOT
BRANCH   1   2
ATOM      2  N   UNL     1      20.557  32.852  12.689  1.00  0.00    -0.157 N 
ATOM      3  C   UNL     1      20.777  33.703  13.733  1.00  0.00     0.362 C 
ATOM      4  N   UNL     1      20.432  33.364  14.980  1.00  0.00    -0.289 N 
ATOM      5  H   UNL     1      20.597  33.995  15.752  1.00  0.00     0.256 HD
ATOM      6  H   UNL     1      19.995  32.477  15.189  1.00  0.00     0.256 HD
ATOM      7  H   UNL     1      20.140  31.943  12.875  1.00  0.00     0.295 HD
BRANCH   3   8
ATOM      8  N   UNL     1      21.347  34.890  13.509  1.00  0.00    -0.289 N 
ATOM      9  H   UNL     1      22.353  34.885  13.353  1.00  0.00     0.256 HD
ATOM     10  H   UNL     1      20.849  35.767  13.500  1.00  0.00     0.256 HD
ENDBRANCH   3   8
ENDBRANCH   1   2
BRANCH   1  11
ATOM     11  C   UNL     1      21.865  32.604  10.875  1.00  0.00     0.161 C 
BRANCH  11  12
ATOM     12  C   UNL     1      21.679  31.848   9.613  1.00  0.00     0.033 A 
ATOM     13  C   UNL     1      21.239  30.514   9.685  1.00  0.00     0.051 A 
ATOM     14  C   UNL     1      21.932  32.408   8.348  1.00  0.00     0.051 A 
ATOM     15  C   UNL     1      21.051  29.762   8.520  1.00  0.00     0.021 A 
ATOM     16  C   UNL     1      21.740  31.645   7.188  1.00  0.00     0.021 A 
ATOM     17  C   UNL     1      21.300  30.327   7.273  1.00  0.00     0.003 A 
ATOM     18  Cl  UNL     1      20.867  29.729  11.183  1.00  0.00    -0.084 Cl
ATOM     19  Cl  UNL     1      22.531  34.014   8.108  1.00  0.00    -0.084 Cl
ENDBRANCH  11  12
ENDBRANCH   1  11
TORSDOF 4
ENDMDL
MODEL 3
REMARK VINA RESULT:    -4.814      2.520      3.100
REMARK INTER + INTRA:          -6.033
REMARK INTER:                  -5.687
REMARK INTRA:                  -0.346
REMARK UNBOUND:                -0.234
REMARK SMILES NC(=[NH2+])N/N=C/c1c(Cl)cccc1Cl
REMARK SMILES IDX 5 1 4 2 2 3 1 4 3 8 6 11 7 12 8 13 13 14 10 15 12 16 11 17
REMARK SMILES IDX 9 18 14 19
REMARK H PARENT 1 5 1 6 4 7 3 9 3 10
ROOT
ATOM      1  N   UNL     1      21.167  29.807  11.894  1.00  0.00    -0.121 NA
ENDROOT
BRANCH   1   2
ATOM      2  N   UNL     1      20.541  29.873  13.103  1.00  0.00    -0.157 N 
ATOM      3  C   UNL     1      21.192  30.513  14.118  1.00  0.00     0.362 C 
ATOM      4  N   UNL     1      20.627  30.637  15.323  1.00  0.00    -0.289 N 
ATOM      5  H   UNL     1      21.110  31.111  16.075  1.00  0.00     0.256 HD
ATOM      6  H   UNL     1      19.706  30.271  15.521  1.00  0.00     0.256 HD
ATOM      7  H   UNL     1      19.623  29.474  13.280  1.00  0.00     0.295 HD
BRANCH   3   8
ATOM      8  N   UNL     1      22.410  31.020  13.908  1.00  0.00    -0.289 N 
ATOM      9  H   UNL     1      22.507  31.645  13.111  1.00  0.00     0.256 HD
ATOM     10  H   UNL     1      23.217  30.810  14.474  1.00  0.00     0.256 HD
ENDBRANCH   3   8
ENDBRANCH   1   2
BRANCH   1  11
ATOM     11  C   UNL     1      20.511  30.317  10.897  1.00  0.00     0.161 C 
BRANCH  11  12
ATOM     12  C   UNL     1      21.099  31.314   9.970  1.00  0.00     0.033 A 
ATOM     13  C   UNL     1      21.487  30.893   8.685  1.00  0.00     0.051 A 
ATOM     14  C   UNL     1      21.291  32.661  10.325  1.00  0.00     0.051 A 
ATOM     15  C   UNL     1      22.046  31.798   7.777  1.00  0.00     0.021 A 
ATOM     16  C   UNL     1      21.852  33.559   9.407  1.00  0.00     0.021 A 
ATOM     17  C   UNL     1      22.228  33.130   8.137  1.00  0.00     0.003 A 
ATOM     18  Cl  UNL     1      21.271  29.268   8.126  1.00  0.00    -0.084 Cl
ATOM     19  Cl  UNL     1      20.916  33.308  11.886  1.00  0.00    -0.084 Cl
ENDBRANCH  11  12
ENDBRANCH   1  11
TORSDOF 4
ENDMDL
MODEL 4
REMARK VINA RESULT:    -4.727      2.593      3.027
REMARK INTER + INTRA:          -5.928
REMARK INTER:                  -5.639
REMARK INTRA:                  -0.289
REMARK UNBOUND:                -0.234
REMARK SMILES NC(=[NH2+])N/N=C/c1c(Cl)cccc1Cl
REMARK SMILES IDX 5 1 4 2 2 3 1 4 3 8 6 11 7 12 8 13 13 14 10 15 12 16 11 17
REMARK SMILES IDX 9 18 14 19
REMARK H PARENT 1 5 1 6 4 7 3 9 3 10
ROOT
ATOM      1  N   UNL     1      21.065  29.739  12.124  1.00  0.00    -0.121 NA
ENDROOT
BRANCH   1   2
ATOM      2  N   UNL     1      20.555  29.878  13.380  1.00  0.00    -0.157 N 
ATOM      3  C   UNL     1      21.311  30.549  14.298  1.00  0.00     0.362 C 
ATOM      4  N   UNL     1      20.863  30.745  15.543  1.00  0.00    -0.289 N 
ATOM      5  H   UNL     1      21.425  31.240  16.222  1.00  0.00     0.256 HD
ATOM      6  H   UNL     1      19.957  30.413  15.842  1.00  0.00     0.256 HD
ATOM      7  H   UNL     1      19.649  29.512  13.661  1.00  0.00     0.295 HD
BRANCH   3   8
ATOM      8  N   UNL     1      22.515  31.013  13.952  1.00  0.00    -0.289 N 
ATOM      9  H   UNL     1      22.829  30.794  13.010  1.00  0.00     0.256 HD
ATOM     10  H   UNL     1      23.116  31.543  14.564  1.00  0.00     0.256 HD
ENDBRANCH   3   8
ENDBRANCH   1   2
BRANCH   1  11
ATOM     11  C   UNL     1      20.392  30.323  11.180  1.00  0.00     0.161 C 
BRANCH  11  12
ATOM     12  C   UNL     1      21.002  31.285  10.231  1.00  0.00     0.033 A 
ATOM     13  C   UNL     1      21.139  32.628  10.627  1.00  0.00     0.051 A 
ATOM     14  C   UNL     1      21.442  30.912   8.948  1.00  0.00     0.051 A 
ATOM     15  C   UNL     1      21.709  33.571   9.765  1.00  0.00     0.021 A 
ATOM     16  C   UNL     1      22.011  31.865   8.093  1.00  0.00     0.021 A 
ATOM     17  C   UNL     1      22.145  33.190   8.499  1.00  0.00     0.003 A 
ATOM     18  Cl  UNL     1      20.663  33.197  12.191  1.00  0.00    -0.084 Cl
ATOM     19  Cl  UNL     1      21.285  29.312   8.304  1.00  0.00    -0.084 Cl
ENDBRANCH  11  12
ENDBRANCH   1  11
TORSDOF 4
ENDMDL
MODEL 5
REMARK VINA RESULT:    -4.511      3.448      5.902
REMARK INTER + INTRA:          -5.668
REMARK INTER:                  -5.457
REMARK INTRA:                  -0.210
REMARK UNBOUND:                -0.234
REMARK SMILES NC(=[NH2+])N/N=C/c1c(Cl)cccc1Cl
REMARK SMILES IDX 5 1 4 2 2 3 1 4 3 8 6 11 7 12 8 13 13 14 10 15 12 16 11 17
REMARK SMILES IDX 9 18 14 19
REMARK H PARENT 1 5 1 6 4 7 3 9 3 10
ROOT
ATOM      1  N   UNL     1      21.569  29.675   8.835  1.00  0.00    -0.121 NA
ENDROOT
BRANCH   1   2
ATOM      2  N   UNL     1      20.944  29.568   7.629  1.00  0.00    -0.157 N 
ATOM      3  C   UNL     1      21.663  29.889   6.513  1.00  0.00     0.362 C 
ATOM      4  N   UNL     1      21.122  29.784   5.295  1.00  0.00    -0.289 N 
ATOM      5  H   UNL     1      21.655  30.024   4.470  1.00  0.00     0.256 HD
ATOM      6  H   UNL     1      20.174  29.461   5.159  1.00  0.00     0.256 HD
ATOM      7  H   UNL     1      19.980  29.263   7.522  1.00  0.00     0.295 HD
BRANCH   3   8
ATOM      8  N   UNL     1      22.922  30.318   6.638  1.00  0.00    -0.289 N 
ATOM      9  H   UNL     1      23.568  30.038   5.904  1.00  0.00     0.256 HD
ATOM     10  H   UNL     1      23.257  30.877   7.407  1.00  0.00     0.256 HD
ENDBRANCH   3   8
ENDBRANCH   1   2
BRANCH   1  11
ATOM     11  C   UNL     1      20.828  30.100   9.812  1.00  0.00     0.161 C 
BRANCH  11  12
ATOM     12  C   UNL     1      21.244  31.195  10.722  1.00  0.00     0.033 A 
ATOM     13  C   UNL     1      21.227  30.961  12.109  1.00  0.00     0.051 A 
ATOM     14  C   UNL     1      21.647  32.459  10.256  1.00  0.00     0.051 A 
ATOM     15  C   UNL     1      21.611  31.965  13.005  1.00  0.00     0.021 A 
ATOM     16  C   UNL     1      22.028  33.457  11.163  1.00  0.00     0.021 A 
ATOM     17  C   UNL     1      22.011  33.211  12.533  1.00  0.00     0.003 A 
ATOM     18  Cl  UNL     1      20.781  29.437  12.798  1.00  0.00    -0.084 Cl
ATOM     19  Cl  UNL     1      21.662  32.909   8.584  1.00  0.00    -0.084 Cl
ENDBRANCH  11  12
ENDBRANCH   1  11
TORSDOF 4
ENDMDL
MODEL 6
REMARK VINA RESULT:    -4.412     10.423     12.102
REMARK INTER + INTRA:          -5.549
REMARK INTER:                  -5.294
REMARK INTRA:                  -0.255
REMARK UNBOUND:                -0.234
REMARK SMILES NC(=[NH2+])N/N=C/c1c(Cl)cccc1Cl
REMARK SMILES IDX 5 1 4 2 2 3 1 4 3 8 6 11 7 12 8 13 13 14 10 15 12 16 11 17
REMARK SMILES IDX 9 18 14 19
REMARK H PARENT 1 5 1 6 4 7 3 9 3 10
ROOT
ATOM      1  N   UNL     1      18.428  42.336  11.041  1.00  0.00    -0.121 NA
ENDROOT
BRANCH   1   2
ATOM      2  N   UNL     1      18.997  42.171  12.269  1.00  0.00    -0.157 N 
ATOM      3  C   UNL     1      18.331  41.398  13.176  1.00  0.00     0.362 C 
ATOM      4  N   UNL     1      18.843  41.173  14.391  1.00  0.00    -0.289 N 
ATOM      5  H   UNL     1      18.348  40.601  15.062  1.00  0.00     0.256 HD
ATOM      6  H   UNL     1      19.733  41.558  14.674  1.00  0.00     0.256 HD
ATOM      7  H   UNL     1      19.883  42.591  12.536  1.00  0.00     0.295 HD
BRANCH   3   8
ATOM      8  N   UNL     1      17.152  40.862  12.849  1.00  0.00    -0.289 N 
ATOM      9  H   UNL     1      16.524  41.450  12.307  1.00  0.00     0.256 HD
ATOM     10  H   UNL     1      16.857  39.935  13.115  1.00  0.00     0.256 HD
ENDBRANCH   3   8
ENDBRANCH   1   2
BRANCH   1  11
ATOM     11  C   UNL     1      19.235  42.712  10.098  1.00  0.00     0.161 C 
BRANCH  11  12
ATOM     12  C   UNL     1      19.948  44.012  10.116  1.00  0.00     0.033 A 
ATOM     13  C   UNL     1      19.262  45.163   9.688  1.00  0.00     0.051 A 
ATOM     14  C   UNL     1      21.284  44.141  10.536  1.00  0.00     0.051 A 
ATOM     15  C   UNL     1      19.894  46.411   9.687  1.00  0.00     0.021 A 
ATOM     16  C   UNL     1      21.907  45.396  10.531  1.00  0.00     0.021 A 
ATOM     17  C   UNL     1      21.215  46.528  10.109  1.00  0.00     0.003 A 
ATOM     18  Cl  UNL     1      17.607  45.133   9.178  1.00  0.00    -0.084 Cl
ATOM     19  Cl  UNL     1      22.269  42.807  11.033  1.00  0.00    -0.084 Cl
ENDBRANCH  11  12
ENDBRANCH   1  11
TORSDOF 4
ENDMDL
MODEL 7
REMARK VINA RESULT:    -4.331      2.516      4.092
REMARK INTER + INTRA:          -5.451
REMARK INTER:                  -5.063
REMARK INTRA:                  -0.388
REMARK UNBOUND:                -0.234
REMARK SMILES NC(=[NH2+])N/N=C/c1c(Cl)cccc1Cl
REMARK SMILES IDX 5 1 4 2 2 3 1 4 3 8 6 11 7 12 8 13 13 14 10 15 12 16 11 17
REMARK SMILES IDX 9 18 14 19
REMARK H PARENT 1 5 1 6 4 7 3 9 3 10
ROOT
ATOM      1  N   UNL     1      21.248  34.177  13.991  1.00  0.00    -0.121 NA
ENDROOT
BRANCH   1   2
ATOM      2  N   UNL     1      21.695  34.548  15.224  1.00  0.00    -0.157 N 
ATOM      3  C   UNL     1      20.908  34.249  16.299  1.00  0.00     0.362 C 
ATOM      4  N   UNL     1      21.295  34.562  17.540  1.00  0.00    -0.289 N 
ATOM      5  H   UNL     1      20.710  34.342  18.335  1.00  0.00     0.256 HD
ATOM      6  H   UNL     1      22.177  35.019  17.724  1.00  0.00     0.256 HD
ATOM      7  H   UNL     1      22.577  35.030  15.378  1.00  0.00     0.295 HD
BRANCH   3   8
ATOM      8  N   UNL     1      19.734  33.640  16.110  1.00  0.00    -0.289 N 
ATOM      9  H   UNL     1      19.646  33.084  15.263  1.00  0.00     0.256 HD
ATOM     10  H   UNL     1      18.950  33.712  16.740  1.00  0.00     0.256 HD
ENDBRANCH   3   8
ENDBRANCH   1   2
BRANCH   1  11
ATOM     11  C   UNL     1      22.007  33.340  13.352  1.00  0.00     0.161 C 
BRANCH  11  12
ATOM     12  C   UNL     1      21.491  32.095  12.732  1.00  0.00     0.033 A 
ATOM     13  C   UNL     1      21.392  30.938  13.526  1.00  0.00     0.051 A 
ATOM     14  C   UNL     1      21.105  32.022  11.382  1.00  0.00     0.051 A 
ATOM     15  C   UNL     1      20.912  29.741  12.984  1.00  0.00     0.021 A 
ATOM     16  C   UNL     1      20.625  30.818  10.850  1.00  0.00     0.021 A 
ATOM     17  C   UNL     1      20.528  29.681  11.647  1.00  0.00     0.003 A 
ATOM     18  Cl  UNL     1      21.808  30.916  15.206  1.00  0.00    -0.084 Cl
ATOM     19  Cl  UNL     1      21.226  33.346  10.272  1.00  0.00    -0.084 Cl
ENDBRANCH  11  12
ENDBRANCH   1  11
TORSDOF 4
ENDMDL
MODEL 8
REMARK VINA RESULT:    -4.182      2.897      5.392
REMARK INTER + INTRA:          -5.272
REMARK INTER:                  -4.976
REMARK INTRA:                  -0.295
REMARK UNBOUND:                -0.234
REMARK SMILES NC(=[NH2+])N/N=C/c1c(Cl)cccc1Cl
REMARK SMILES IDX 5 1 4 2 2 3 1 4 3 8 6 11 7 12 8 13 13 14 10 15 12 16 11 17
REMARK SMILES IDX 9 18 14 19
REMARK H PARENT 1 5 1 6 4 7 3 9 3 10
ROOT
ATOM      1  N   UNL     1      21.255  30.725   9.593  1.00  0.00    -0.121 NA
ENDROOT
BRANCH   1   2
ATOM      2  N   UNL     1      21.530  31.128   8.320  1.00  0.00    -0.157 N 
ATOM      3  C   UNL     1      21.321  30.230   7.314  1.00  0.00     0.362 C 
ATOM      4  N   UNL     1      21.545  30.565   6.039  1.00  0.00    -0.289 N 
ATOM      5  H   UNL     1      21.392  29.898   5.294  1.00  0.00     0.256 HD
ATOM      6  H   UNL     1      21.868  31.487   5.779  1.00  0.00     0.256 HD
ATOM      7  H   UNL     1      21.877  32.055   8.089  1.00  0.00     0.295 HD
BRANCH   3   8
ATOM      8  N   UNL     1      20.890  28.999   7.604  1.00  0.00    -0.289 N 
ATOM      9  H   UNL     1      21.285  28.568   8.436  1.00  0.00     0.256 HD
ATOM     10  H   UNL     1      20.223  28.486   7.049  1.00  0.00     0.256 HD
ENDBRANCH   3   8
ENDBRANCH   1   2
BRANCH   1  11
ATOM     11  C   UNL     1      22.141  31.048  10.485  1.00  0.00     0.161 C 
BRANCH  11  12
ATOM     12  C   UNL     1      21.830  31.899  11.659  1.00  0.00     0.033 A 
ATOM     13  C   UNL     1      22.085  33.280  11.577  1.00  0.00     0.051 A 
ATOM     14  C   UNL     1      21.297  31.382  12.853  1.00  0.00     0.051 A 
ATOM     15  C   UNL     1      21.808  34.122  12.660  1.00  0.00     0.021 A 
ATOM     16  C   UNL     1      21.024  32.234  13.931  1.00  0.00     0.021 A 
ATOM     17  C   UNL     1      21.278  33.600  13.835  1.00  0.00     0.003 A 
ATOM     18  Cl  UNL     1      22.710  34.035  10.149  1.00  0.00    -0.084 Cl
ATOM     19  Cl  UNL     1      20.986  29.700  13.118  1.00  0.00    -0.084 Cl
ENDBRANCH  11  12
ENDBRANCH   1  11
TORSDOF 4
ENDMDL
MODEL 9
REMARK VINA RESULT:    -4.141      3.377      4.630
REMARK INTER + INTRA:          -5.222
REMARK INTER:                  -4.945
REMARK INTRA:                  -0.277
REMARK UNBOUND:                -0.234
REMARK SMILES NC(=[NH2+])N/N=C/c1c(Cl)cccc1Cl
REMARK SMILES IDX 5 1 4 2 2 3 1 4 3 8 6 11 7 12 8 13 13 14 10 15 12 16 11 17
REMARK SMILES IDX 9 18 14 19
REMARK H PARENT 1 5 1 6 4 7 3 9 3 10
ROOT
ATOM      1  N   UNL     1      22.273  34.325   8.387  1.00  0.00    -0.121 NA
ENDROOT
BRANCH   1   2
ATOM      2  N   UNL     1      22.953  35.481   8.628  1.00  0.00    -0.157 N 
ATOM      3  C   UNL     1      23.107  36.353   7.588  1.00  0.00     0.362 C 
ATOM      4  N   UNL     1      23.741  37.517   7.758  1.00  0.00    -0.289 N 
ATOM      5  H   UNL     1      23.856  38.161   6.987  1.00  0.00     0.256 HD
ATOM      6  H   UNL     1      24.120  37.793   8.654  1.00  0.00     0.256 HD
ATOM      7  H   UNL     1      23.344  35.722   9.534  1.00  0.00     0.295 HD
BRANCH   3   8
ATOM      8  N   UNL     1      22.621  36.039   6.384  1.00  0.00    -0.289 N 
ATOM      9  H   UNL     1      21.639  35.774   6.349  1.00  0.00     0.256 HD
ATOM     10  H   UNL     1      23.165  36.038   5.535  1.00  0.00     0.256 HD
ENDBRANCH   3   8
ENDBRANCH   1   2
BRANCH   1  11
ATOM     11  C   UNL     1      22.815  33.248   8.865  1.00  0.00     0.161 C 
BRANCH  11  12
ATOM     12  C   UNL     1      22.044  32.208   9.589  1.00  0.00     0.033 A 
ATOM     13  C   UNL     1      21.689  31.033   8.903  1.00  0.00     0.051 A 
ATOM     14  C   UNL     1      21.647  32.352  10.930  1.00  0.00     0.051 A 
ATOM     15  C   UNL     1      20.961  30.025   9.545  1.00  0.00     0.021 A 
ATOM     16  C   UNL     1      20.918  31.336  11.563  1.00  0.00     0.021 A 
ATOM     17  C   UNL     1      20.576  30.176  10.874  1.00  0.00     0.003 A 
ATOM     18  Cl  UNL     1      22.148  30.731   7.261  1.00  0.00    -0.084 Cl
ATOM     19  Cl  UNL     1      21.961  33.765  11.881  1.00  0.00    -0.084 Cl
ENDBRANCH  11  12
ENDBRANCH   1  11
TORSDOF 4
ENDMDL
