MODEL 1
REMARK VINA RESULT:    -6.349      0.000      0.000
REMARK INTER + INTRA:          -7.601
REMARK INTER:                  -7.277
REMARK INTRA:                  -0.323
REMARK UNBOUND:                -0.323
REMARK SMILES O=C1C[C@H](c2ccc(O)cc2)Oc2cc(O)cc(O)c21
REMARK SMILES IDX 1 1 2 2 3 3 4 4 12 5 13 6 14 7 15 8 17 9 18 10 20 11 5 12
REMARK SMILES IDX 6 13 11 14 7 15 10 16 8 17 9 18 19 20 16 22
REMARK H PARENT 9 19 19 21 16 23
ROOT
ATOM      1  O   UNL     1      20.520  29.876   9.669  1.00  0.00    -0.294 OA
ATOM      2  C   UNL     1      21.130  30.860  10.081  1.00  0.00     0.174 C 
ATOM      3  C   UNL     1      21.845  31.818   9.174  1.00  0.00     0.131 C 
ATOM      4  C   UNL     1      21.810  33.195   9.822  1.00  0.00     0.211 C 
ATOM      5  O   UNL     1      22.455  33.176  11.107  1.00  0.00    -0.484 OA
ATOM      6  C   UNL     1      21.919  32.248  11.961  1.00  0.00     0.138 A 
ATOM      7  C   UNL     1      22.106  32.480  13.325  1.00  0.00     0.093 A 
ATOM      8  C   UNL     1      21.579  31.579  14.247  1.00  0.00     0.123 A 
ATOM      9  C   UNL     1      20.879  30.451  13.829  1.00  0.00     0.093 A 
ATOM     10  C   UNL     1      20.712  30.211  12.468  1.00  0.00     0.133 A 
ATOM     11  C   UNL     1      21.238  31.106  11.531  1.00  0.00     0.102 A 
ENDROOT
BRANCH   4  12
ATOM     12  C   UNL     1      22.504  34.217   8.942  1.00  0.00    -0.007 A 
ATOM     13  C   UNL     1      22.163  34.364   7.587  1.00  0.00     0.011 A 
ATOM     14  C   UNL     1      23.485  35.064   9.485  1.00  0.00     0.011 A 
ATOM     15  C   UNL     1      22.794  35.326   6.795  1.00  0.00     0.046 A 
ATOM     16  C   UNL     1      24.116  36.027   8.693  1.00  0.00     0.046 A 
ATOM     17  C   UNL     1      23.764  36.148   7.354  1.00  0.00     0.115 A 
BRANCH  17  18
ATOM     18  O   UNL     1      24.353  37.074   6.544  1.00  0.00    -0.508 OA
ATOM     19  H   UNL     1      24.595  37.847   7.081  1.00  0.00     0.293 HD
ENDBRANCH  17  18
ENDBRANCH   4  12
BRANCH  10  20
ATOM     20  O   UNL     1      20.032  29.078  12.116  1.00  0.00    -0.507 OA
ATOM     21  H   UNL     1      19.086  29.198  12.356  1.00  0.00     0.293 HD
ENDBRANCH  10  20
BRANCH   8  22
ATOM     22  O   UNL     1      21.728  31.772  15.589  1.00  0.00    -0.508 OA
ATOM     23  H   UNL     1      22.125  30.976  15.983  1.00  0.00     0.293 HD
ENDBRANCH   8  22
TORSDOF 4
ENDMDL
MODEL 2
REMARK VINA RESULT:    -6.144      3.548      4.966
REMARK INTER + INTRA:          -7.365
REMARK INTER:                  -7.060
REMARK INTRA:                  -0.305
REMARK UNBOUND:                -0.323
REMARK SMILES O=C1C[C@H](c2ccc(O)cc2)Oc2cc(O)cc(O)c21
REMARK SMILES IDX 1 1 2 2 3 3 4 4 12 5 13 6 14 7 15 8 17 9 18 10 20 11 5 12
REMARK SMILES IDX 6 13 11 14 7 15 10 16 8 17 9 18 19 20 16 22
REMARK H PARENT 9 19 19 21 16 23
ROOT
ATOM      1  O   UNL     1      22.250  34.283   9.142  1.00  0.00    -0.294 OA
ATOM      2  C   UNL     1      22.076  33.125   8.768  1.00  0.00     0.174 C 
ATOM      3  C   UNL     1      22.322  32.676   7.358  1.00  0.00     0.131 C 
ATOM      4  C   UNL     1      22.750  31.216   7.396  1.00  0.00     0.211 C 
ATOM      5  O   UNL     1      21.731  30.395   7.993  1.00  0.00    -0.484 OA
ATOM      6  C   UNL     1      21.378  30.809   9.251  1.00  0.00     0.138 A 
ATOM      7  C   UNL     1      20.808  29.845  10.083  1.00  0.00     0.093 A 
ATOM      8  C   UNL     1      20.436  30.197  11.378  1.00  0.00     0.123 A 
ATOM      9  C   UNL     1      20.615  31.495  11.848  1.00  0.00     0.093 A 
ATOM     10  C   UNL     1      21.164  32.459  11.009  1.00  0.00     0.133 A 
ATOM     11  C   UNL     1      21.541  32.121   9.705  1.00  0.00     0.102 A 
ENDROOT
BRANCH   4  12
ATOM     12  C   UNL     1      23.033  30.705   5.996  1.00  0.00    -0.007 A 
ATOM     13  C   UNL     1      24.299  30.854   5.408  1.00  0.00     0.011 A 
ATOM     14  C   UNL     1      22.029  30.038   5.275  1.00  0.00     0.011 A 
ATOM     15  C   UNL     1      24.551  30.356   4.128  1.00  0.00     0.046 A 
ATOM     16  C   UNL     1      22.281  29.539   3.993  1.00  0.00     0.046 A 
ATOM     17  C   UNL     1      23.541  29.705   3.431  1.00  0.00     0.115 A 
BRANCH  17  18
ATOM     18  O   UNL     1      23.832  29.235   2.185  1.00  0.00    -0.508 OA
ATOM     19  H   UNL     1      23.222  28.507   1.977  1.00  0.00     0.293 HD
ENDBRANCH  17  18
ENDBRANCH   4  12
BRANCH  10  20
ATOM     20  O   UNL     1      21.299  33.722  11.519  1.00  0.00    -0.507 OA
ATOM     21  H   UNL     1      22.104  33.743  12.083  1.00  0.00     0.293 HD
ENDBRANCH  10  20
BRANCH   8  22
ATOM     22  O   UNL     1      19.885  29.285  12.229  1.00  0.00    -0.508 OA
ATOM     23  H   UNL     1      20.482  29.152  12.985  1.00  0.00     0.293 HD
ENDBRANCH   8  22
TORSDOF 4
ENDMDL
MODEL 3
REMARK VINA RESULT:    -6.127      2.743      4.327
REMARK INTER + INTRA:          -7.346
REMARK INTER:                  -7.019
REMARK INTRA:                  -0.326
REMARK UNBOUND:                -0.323
REMARK SMILES O=C1C[C@H](c2ccc(O)cc2)Oc2cc(O)cc(O)c21
REMARK SMILES IDX 1 1 2 2 3 3 4 4 12 5 13 6 14 7 15 8 17 9 18 10 20 11 5 12
REMARK SMILES IDX 6 13 11 14 7 15 10 16 8 17 9 18 19 20 16 22
REMARK H PARENT 9 19 19 21 16 23
ROOT
ATOM      1  O   UNL     1      22.321  35.155  12.763  1.00  0.00    -0.294 OA
ATOM      2  C   UNL     1      21.978  33.999  12.523  1.00  0.00     0.174 C 
ATOM      3  C   UNL     1      21.688  33.503  11.138  1.00  0.00     0.131 C 
ATOM      4  C   UNL     1      22.042  32.023  11.083  1.00  0.00     0.211 C 
ATOM      5  O   UNL     1      21.268  31.273  12.035  1.00  0.00    -0.484 OA
ATOM      6  C   UNL     1      21.403  31.736  13.318  1.00  0.00     0.138 A 
ATOM      7  C   UNL     1      21.126  30.824  14.338  1.00  0.00     0.093 A 
ATOM      8  C   UNL     1      21.253  31.227  15.664  1.00  0.00     0.123 A 
ATOM      9  C   UNL     1      21.641  32.525  15.987  1.00  0.00     0.093 A 
ATOM     10  C   UNL     1      21.895  33.438  14.968  1.00  0.00     0.133 A 
ATOM     11  C   UNL     1      21.770  33.047  13.630  1.00  0.00     0.102 A 
ENDROOT
BRANCH   4  12
ATOM     12  C   UNL     1      21.787  31.464   9.696  1.00  0.00    -0.007 A 
ATOM     13  C   UNL     1      21.329  30.148   9.514  1.00  0.00     0.011 A 
ATOM     14  C   UNL     1      21.975  32.275   8.565  1.00  0.00     0.011 A 
ATOM     15  C   UNL     1      21.075  29.655   8.232  1.00  0.00     0.046 A 
ATOM     16  C   UNL     1      21.721  31.781   7.281  1.00  0.00     0.046 A 
ATOM     17  C   UNL     1      21.274  30.474   7.128  1.00  0.00     0.115 A 
BRANCH  17  18
ATOM     18  O   UNL     1      21.013  29.951   5.896  1.00  0.00    -0.508 OA
ATOM     19  H   UNL     1      21.825  29.539   5.556  1.00  0.00     0.293 HD
ENDBRANCH  17  18
ENDBRANCH   4  12
BRANCH  10  20
ATOM     20  O   UNL     1      22.254  34.703  15.343  1.00  0.00    -0.507 OA
ATOM     21  H   UNL     1      22.078  34.802  16.306  1.00  0.00     0.293 HD
ENDBRANCH  10  20
BRANCH   8  22
ATOM     22  O   UNL     1      21.004  30.367  16.693  1.00  0.00    -0.508 OA
ATOM     23  H   UNL     1      21.812  29.865  16.892  1.00  0.00     0.293 HD
ENDBRANCH   8  22
TORSDOF 4
ENDMDL
MODEL 4
REMARK VINA RESULT:    -5.936      2.797      4.011
REMARK INTER + INTRA:          -7.128
REMARK INTER:                  -6.802
REMARK INTRA:                  -0.326
REMARK UNBOUND:                -0.323
REMARK SMILES O=C1C[C@H](c2ccc(O)cc2)Oc2cc(O)cc(O)c21
REMARK SMILES IDX 1 1 2 2 3 3 4 4 12 5 13 6 14 7 15 8 17 9 18 10 20 11 5 12
REMARK SMILES IDX 6 13 11 14 7 15 10 16 8 17 9 18 19 20 16 22
REMARK H PARENT 9 19 19 21 16 23
ROOT
ATOM      1  O   UNL     1      20.519  29.663  13.687  1.00  0.00    -0.294 OA
ATOM      2  C   UNL     1      20.928  30.479  12.863  1.00  0.00     0.174 C 
ATOM      3  C   UNL     1      21.280  30.110  11.452  1.00  0.00     0.131 C 
ATOM      4  C   UNL     1      21.005  31.318  10.567  1.00  0.00     0.211 C 
ATOM      5  O   UNL     1      21.791  32.449  10.979  1.00  0.00    -0.484 OA
ATOM      6  C   UNL     1      21.597  32.784  12.294  1.00  0.00     0.138 A 
ATOM      7  C   UNL     1      21.894  34.101  12.648  1.00  0.00     0.093 A 
ATOM      8  C   UNL     1      21.711  34.509  13.967  1.00  0.00     0.123 A 
ATOM      9  C   UNL     1      21.248  33.623  14.935  1.00  0.00     0.093 A 
ATOM     10  C   UNL     1      20.974  32.305  14.584  1.00  0.00     0.133 A 
ATOM     11  C   UNL     1      21.155  31.880  13.264  1.00  0.00     0.102 A 
ENDROOT
BRANCH   4  12
ATOM     12  C   UNL     1      21.325  31.002   9.118  1.00  0.00    -0.007 A 
ATOM     13  C   UNL     1      21.795  31.994   8.242  1.00  0.00     0.011 A 
ATOM     14  C   UNL     1      21.185  29.689   8.636  1.00  0.00     0.011 A 
ATOM     15  C   UNL     1      22.109  31.683   6.918  1.00  0.00     0.046 A 
ATOM     16  C   UNL     1      21.500  29.378   7.310  1.00  0.00     0.046 A 
ATOM     17  C   UNL     1      21.959  30.379   6.463  1.00  0.00     0.115 A 
BRANCH  17  18
ATOM     18  O   UNL     1      22.278  30.121   5.163  1.00  0.00    -0.508 OA
ATOM     19  H   UNL     1      21.662  30.608   4.590  1.00  0.00     0.293 HD
ENDBRANCH  17  18
ENDBRANCH   4  12
BRANCH  10  20
ATOM     20  O   UNL     1      20.540  31.474  15.581  1.00  0.00    -0.507 OA
ATOM     21  H   UNL     1      20.530  30.554  15.234  1.00  0.00     0.293 HD
ENDBRANCH  10  20
BRANCH   8  22
ATOM     22  O   UNL     1      21.977  35.790  14.354  1.00  0.00    -0.508 OA
ATOM     23  H   UNL     1      22.780  35.797  14.902  1.00  0.00     0.293 HD
ENDBRANCH   8  22
TORSDOF 4
ENDMDL
MODEL 5
REMARK VINA RESULT:    -5.875      2.839      4.196
REMARK INTER + INTRA:          -7.057
REMARK INTER:                  -6.760
REMARK INTRA:                  -0.297
REMARK UNBOUND:                -0.323
REMARK SMILES O=C1C[C@H](c2ccc(O)cc2)Oc2cc(O)cc(O)c21
REMARK SMILES IDX 1 1 2 2 3 3 4 4 12 5 13 6 14 7 15 8 17 9 18 10 20 11 5 12
REMARK SMILES IDX 6 13 11 14 7 15 10 16 8 17 9 18 19 20 16 22
REMARK H PARENT 9 19 19 21 16 23
ROOT
ATOM      1  O   UNL     1      23.840  29.588  14.231  1.00  0.00    -0.294 OA
ATOM      2  C   UNL     1      23.078  30.328  13.611  1.00  0.00     0.174 C 
ATOM      3  C   UNL     1      23.073  30.426  12.114  1.00  0.00     0.131 C 
ATOM      4  C   UNL     1      21.655  30.760  11.669  1.00  0.00     0.211 C 
ATOM      5  O   UNL     1      21.219  32.008  12.236  1.00  0.00    -0.484 OA
ATOM      6  C   UNL     1      21.293  32.030  13.604  1.00  0.00     0.138 A 
ATOM      7  C   UNL     1      20.460  32.941  14.255  1.00  0.00     0.093 A 
ATOM      8  C   UNL     1      20.479  33.007  15.646  1.00  0.00     0.123 A 
ATOM      9  C   UNL     1      21.322  32.189  16.392  1.00  0.00     0.093 A 
ATOM     10  C   UNL     1      22.168  31.297  15.739  1.00  0.00     0.133 A 
ATOM     11  C   UNL     1      22.160  31.220  14.343  1.00  0.00     0.102 A 
ENDROOT
BRANCH   4  12
ATOM     12  C   UNL     1      21.579  30.856  10.158  1.00  0.00    -0.007 A 
ATOM     13  C   UNL     1      21.956  32.027   9.481  1.00  0.00     0.011 A 
ATOM     14  C   UNL     1      21.156  29.749   9.403  1.00  0.00     0.011 A 
ATOM     15  C   UNL     1      21.903  32.092   8.087  1.00  0.00     0.046 A 
ATOM     16  C   UNL     1      21.103  29.813   8.007  1.00  0.00     0.046 A 
ATOM     17  C   UNL     1      21.477  30.986   7.363  1.00  0.00     0.115 A 
BRANCH  17  18
ATOM     18  O   UNL     1      21.441  31.094   6.004  1.00  0.00    -0.508 OA
ATOM     19  H   UNL     1      20.791  31.775   5.764  1.00  0.00     0.293 HD
ENDBRANCH  17  18
ENDBRANCH   4  12
BRANCH  10  20
ATOM     20  O   UNL     1      22.987  30.531  16.523  1.00  0.00    -0.507 OA
ATOM     21  H   UNL     1      23.903  30.596  16.169  1.00  0.00     0.293 HD
ENDBRANCH  10  20
BRANCH   8  22
ATOM     22  O   UNL     1      19.674  33.874  16.324  1.00  0.00    -0.508 OA
ATOM     23  H   UNL     1      18.744  33.656  16.141  1.00  0.00     0.293 HD
ENDBRANCH   8  22
TORSDOF 4
ENDMDL
MODEL 6
REMARK VINA RESULT:    -5.753      2.283      6.543
REMARK INTER + INTRA:          -6.917
REMARK INTER:                  -6.593
REMARK INTRA:                  -0.325
REMARK UNBOUND:                -0.323
REMARK SMILES O=C1C[C@H](c2ccc(O)cc2)Oc2cc(O)cc(O)c21
REMARK SMILES IDX 1 1 2 2 3 3 4 4 12 5 13 6 14 7 15 8 17 9 18 10 20 11 5 12
REMARK SMILES IDX 6 13 11 14 7 15 10 16 8 17 9 18 19 20 16 22
REMARK H PARENT 9 19 19 21 16 23
ROOT
ATOM      1  O   UNL     1      22.872  34.504   9.675  1.00  0.00    -0.294 OA
ATOM      2  C   UNL     1      22.457  33.543  10.319  1.00  0.00     0.174 C 
ATOM      3  C   UNL     1      22.503  33.481  11.817  1.00  0.00     0.131 C 
ATOM      4  C   UNL     1      21.326  32.640  12.290  1.00  0.00     0.211 C 
ATOM      5  O   UNL     1      21.393  31.309  11.751  1.00  0.00    -0.484 OA
ATOM      6  C   UNL     1      21.458  31.289  10.382  1.00  0.00     0.138 A 
ATOM      7  C   UNL     1      21.030  30.115   9.759  1.00  0.00     0.093 A 
ATOM      8  C   UNL     1      21.060  30.032   8.369  1.00  0.00     0.123 A 
ATOM      9  C   UNL     1      21.520  31.095   7.596  1.00  0.00     0.093 A 
ATOM     10  C   UNL     1      21.966  32.255   8.221  1.00  0.00     0.133 A 
ATOM     11  C   UNL     1      21.943  32.353   9.616  1.00  0.00     0.102 A 
ENDROOT
BRANCH   4  12
ATOM     12  C   UNL     1      21.305  32.554  13.804  1.00  0.00    -0.007 A 
ATOM     13  C   UNL     1      21.255  31.315  14.463  1.00  0.00     0.011 A 
ATOM     14  C   UNL     1      21.371  33.726  14.577  1.00  0.00     0.011 A 
ATOM     15  C   UNL     1      21.262  31.250  15.858  1.00  0.00     0.046 A 
ATOM     16  C   UNL     1      21.378  33.661  15.974  1.00  0.00     0.046 A 
ATOM     17  C   UNL     1      21.323  32.422  16.601  1.00  0.00     0.115 A 
BRANCH  17  18
ATOM     18  O   UNL     1      21.327  32.312  17.960  1.00  0.00    -0.508 OA
ATOM     19  H   UNL     1      22.204  32.005  18.244  1.00  0.00     0.293 HD
ENDBRANCH  17  18
ENDBRANCH   4  12
BRANCH  10  20
ATOM     20  O   UNL     1      22.424  33.260   7.413  1.00  0.00    -0.507 OA
ATOM     21  H   UNL     1      22.131  34.119   7.791  1.00  0.00     0.293 HD
ENDBRANCH  10  20
BRANCH   8  22
ATOM     22  O   UNL     1      20.641  28.910   7.718  1.00  0.00    -0.508 OA
ATOM     23  H   UNL     1      19.724  28.714   7.976  1.00  0.00     0.293 HD
ENDBRANCH   8  22
TORSDOF 4
ENDMDL
MODEL 7
REMARK VINA RESULT:    -5.752      1.217      2.811
REMARK INTER + INTRA:          -6.916
REMARK INTER:                  -6.591
REMARK INTRA:                  -0.325
REMARK UNBOUND:                -0.323
REMARK SMILES O=C1C[C@H](c2ccc(O)cc2)Oc2cc(O)cc(O)c21
REMARK SMILES IDX 1 1 2 2 3 3 4 4 12 5 13 6 14 7 15 8 17 9 18 10 20 11 5 12
REMARK SMILES IDX 6 13 11 14 7 15 10 16 8 17 9 18 19 20 16 22
REMARK H PARENT 9 19 19 21 16 23
ROOT
ATOM      1  O   UNL     1      23.715  33.789  13.987  1.00  0.00    -0.294 OA
ATOM      2  C   UNL     1      23.142  33.633  12.911  1.00  0.00     0.174 C 
ATOM      3  C   UNL     1      23.202  34.640  11.800  1.00  0.00     0.131 C 
ATOM      4  C   UNL     1      23.091  33.891  10.479  1.00  0.00     0.211 C 
ATOM      5  O   UNL     1      21.854  33.162  10.403  1.00  0.00    -0.484 OA
ATOM      6  C   UNL     1      21.681  32.290  11.446  1.00  0.00     0.138 A 
ATOM      7  C   UNL     1      20.817  31.218  11.221  1.00  0.00     0.093 A 
ATOM      8  C   UNL     1      20.604  30.290  12.237  1.00  0.00     0.123 A 
ATOM      9  C   UNL     1      21.232  30.422  13.473  1.00  0.00     0.093 A 
ATOM     10  C   UNL     1      22.076  31.504  13.701  1.00  0.00     0.133 A 
ATOM     11  C   UNL     1      22.298  32.445  12.691  1.00  0.00     0.102 A 
ENDROOT
BRANCH   4  12
ATOM     12  C   UNL     1      23.163  34.856   9.311  1.00  0.00    -0.007 A 
ATOM     13  C   UNL     1      22.520  34.576   8.093  1.00  0.00     0.011 A 
ATOM     14  C   UNL     1      23.853  36.072   9.444  1.00  0.00     0.011 A 
ATOM     15  C   UNL     1      22.575  35.485   7.035  1.00  0.00     0.046 A 
ATOM     16  C   UNL     1      23.908  36.983   8.384  1.00  0.00     0.046 A 
ATOM     17  C   UNL     1      23.268  36.679   7.188  1.00  0.00     0.115 A 
BRANCH  17  18
ATOM     18  O   UNL     1      23.295  37.537   6.129  1.00  0.00    -0.508 OA
ATOM     19  H   UNL     1      23.655  37.067   5.358  1.00  0.00     0.293 HD
ENDBRANCH  17  18
ENDBRANCH   4  12
BRANCH  10  20
ATOM     20  O   UNL     1      22.651  31.592  14.940  1.00  0.00    -0.507 OA
ATOM     21  H   UNL     1      22.537  32.512  15.269  1.00  0.00     0.293 HD
ENDBRANCH  10  20
BRANCH   8  22
ATOM     22  O   UNL     1      19.776  29.221  12.058  1.00  0.00    -0.508 OA
ATOM     23  H   UNL     1      19.345  29.006  12.902  1.00  0.00     0.293 HD
ENDBRANCH   8  22
TORSDOF 4
ENDMDL
MODEL 8
REMARK VINA RESULT:    -5.701      1.672      7.222
REMARK INTER + INTRA:          -6.857
REMARK INTER:                  -6.538
REMARK INTRA:                  -0.319
REMARK UNBOUND:                -0.323
REMARK SMILES O=C1C[C@H](c2ccc(O)cc2)Oc2cc(O)cc(O)c21
REMARK SMILES IDX 1 1 2 2 3 3 4 4 12 5 13 6 14 7 15 8 17 9 18 10 20 11 5 12
REMARK SMILES IDX 6 13 11 14 7 15 10 16 8 17 9 18 19 20 16 22
REMARK H PARENT 9 19 19 21 16 23
ROOT
ATOM      1  O   UNL     1      25.397  35.881  11.230  1.00  0.00    -0.294 OA
ATOM      2  C   UNL     1      24.495  35.327  10.605  1.00  0.00     0.174 C 
ATOM      3  C   UNL     1      23.911  34.007  11.012  1.00  0.00     0.131 C 
ATOM      4  C   UNL     1      22.452  33.982  10.576  1.00  0.00     0.211 C 
ATOM      5  O   UNL     1      22.338  34.143   9.151  1.00  0.00    -0.484 OA
ATOM      6  C   UNL     1      22.941  35.284   8.691  1.00  0.00     0.138 A 
ATOM      7  C   UNL     1      22.477  35.781   7.472  1.00  0.00     0.093 A 
ATOM      8  C   UNL     1      23.041  36.943   6.952  1.00  0.00     0.123 A 
ATOM      9  C   UNL     1      24.064  37.607   7.622  1.00  0.00     0.093 A 
ATOM     10  C   UNL     1      24.539  37.097   8.827  1.00  0.00     0.133 A 
ATOM     11  C   UNL     1      23.983  35.930   9.361  1.00  0.00     0.102 A 
ENDROOT
BRANCH   4  12
ATOM     12  C   UNL     1      21.797  32.674  10.975  1.00  0.00    -0.007 A 
ATOM     13  C   UNL     1      21.662  32.308  12.325  1.00  0.00     0.011 A 
ATOM     14  C   UNL     1      21.281  31.816   9.990  1.00  0.00     0.011 A 
ATOM     15  C   UNL     1      21.034  31.112  12.678  1.00  0.00     0.046 A 
ATOM     16  C   UNL     1      20.652  30.618  10.343  1.00  0.00     0.046 A 
ATOM     17  C   UNL     1      20.536  30.278  11.686  1.00  0.00     0.115 A 
BRANCH  17  18
ATOM     18  O   UNL     1      19.930  29.120  12.076  1.00  0.00    -0.508 OA
ATOM     19  H   UNL     1      19.620  29.225  12.991  1.00  0.00     0.293 HD
ENDBRANCH  17  18
ENDBRANCH   4  12
BRANCH  10  20
ATOM     20  O   UNL     1      25.558  37.781   9.432  1.00  0.00    -0.507 OA
ATOM     21  H   UNL     1      25.577  37.530  10.383  1.00  0.00     0.293 HD
ENDBRANCH  10  20
BRANCH   8  22
ATOM     22  O   UNL     1      22.611  37.470   5.769  1.00  0.00    -0.508 OA
ATOM     23  H   UNL     1      23.355  37.498   5.143  1.00  0.00     0.293 HD
ENDBRANCH   8  22
TORSDOF 4
ENDMDL
MODEL 9
REMARK VINA RESULT:    -5.559      3.024      7.394
REMARK INTER + INTRA:          -6.694
REMARK INTER:                  -6.388
REMARK INTRA:                  -0.307
REMARK UNBOUND:                -0.323
REMARK SMILES O=C1C[C@H](c2ccc(O)cc2)Oc2cc(O)cc(O)c21
REMARK SMILES IDX 1 1 2 2 3 3 4 4 12 5 13 6 14 7 15 8 17 9 18 10 20 11 5 12
REMARK SMILES IDX 6 13 11 14 7 15 10 16 8 17 9 18 19 20 16 22
REMARK H PARENT 9 19 19 21 16 23
ROOT
ATOM      1  O   UNL     1      25.283  36.397  10.307  1.00  0.00    -0.294 OA
ATOM      2  C   UNL     1      24.431  36.055   9.488  1.00  0.00     0.174 C 
ATOM      3  C   UNL     1      23.994  34.632   9.309  1.00  0.00     0.131 C 
ATOM      4  C   UNL     1      22.539  34.638   8.863  1.00  0.00     0.211 C 
ATOM      5  O   UNL     1      22.383  35.351   7.623  1.00  0.00    -0.484 OA
ATOM      6  C   UNL     1      22.857  36.635   7.680  1.00  0.00     0.138 A 
ATOM      7  C   UNL     1      22.322  37.534   6.756  1.00  0.00     0.093 A 
ATOM      8  C   UNL     1      22.754  38.858   6.767  1.00  0.00     0.123 A 
ATOM      9  C   UNL     1      23.714  39.293   7.676  1.00  0.00     0.093 A 
ATOM     10  C   UNL     1      24.261  38.389   8.582  1.00  0.00     0.133 A 
ATOM     11  C   UNL     1      23.839  37.056   8.582  1.00  0.00     0.102 A 
ENDROOT
BRANCH   4  12
ATOM     12  C   UNL     1      22.029  33.221   8.680  1.00  0.00    -0.007 A 
ATOM     13  C   UNL     1      22.008  32.611   7.415  1.00  0.00     0.011 A 
ATOM     14  C   UNL     1      21.598  32.479   9.793  1.00  0.00     0.011 A 
ATOM     15  C   UNL     1      21.560  31.298   7.266  1.00  0.00     0.046 A 
ATOM     16  C   UNL     1      21.149  31.164   9.644  1.00  0.00     0.046 A 
ATOM     17  C   UNL     1      21.134  30.586   8.380  1.00  0.00     0.115 A 
BRANCH  17  18
ATOM     18  O   UNL     1      20.704  29.306   8.188  1.00  0.00    -0.508 OA
ATOM     19  H   UNL     1      21.051  28.751   8.907  1.00  0.00     0.293 HD
ENDBRANCH  17  18
ENDBRANCH   4  12
BRANCH  10  20
ATOM     20  O   UNL     1      25.214  38.868   9.439  1.00  0.00    -0.507 OA
ATOM     21  H   UNL     1      26.091  38.789   9.002  1.00  0.00     0.293 HD
ENDBRANCH  10  20
BRANCH   8  22
ATOM     22  O   UNL     1      22.251  39.774   5.890  1.00  0.00    -0.508 OA
ATOM     23  H   UNL     1      22.987  40.262   5.481  1.00  0.00     0.293 HD
ENDBRANCH   8  22
TORSDOF 4
ENDMDL
