MODEL 1
REMARK VINA RESULT:    -5.946      0.000      0.000
REMARK INTER + INTRA:          -7.546
REMARK INTER:                  -7.163
REMARK INTRA:                  -0.383
REMARK UNBOUND:                -0.383
REMARK SMILES Nc1ccc(S(=O)(=O)Nc2cnc3ccccc3n2)cc1
REMARK SMILES IDX 2 1 3 2 4 3 5 4 20 5 21 6 1 7 6 10 7 11 8 12 9 13 10 15
REMARK SMILES IDX 11 16 19 17 12 18 18 19 13 20 17 21 14 22 16 23 15 24
REMARK H PARENT 1 8 1 9 9 14
ROOT
ATOM      1  C   UNL     1      22.364  36.778  15.550  1.00  0.00     0.031 A 
ATOM      2  C   UNL     1      22.032  35.736  16.421  1.00  0.00     0.027 A 
ATOM      3  C   UNL     1      21.814  34.442  15.939  1.00  0.00     0.024 A 
ATOM      4  C   UNL     1      21.874  34.204  14.564  1.00  0.00     0.088 A 
ATOM      5  C   UNL     1      22.164  35.243  13.676  1.00  0.00     0.024 A 
ATOM      6  C   UNL     1      22.381  36.530  14.173  1.00  0.00     0.027 A 
ENDROOT
BRANCH   1   7
ATOM      7  N   UNL     1      22.460  38.090  16.027  1.00  0.00    -0.399 N 
ATOM      8  H   UNL     1      21.564  38.547  16.163  1.00  0.00     0.156 HD
ATOM      9  H   UNL     1      23.110  38.671  15.505  1.00  0.00     0.156 HD
ENDBRANCH   1   7
BRANCH   4  10
ATOM     10  S   UNL     1      21.596  32.566  13.931  1.00  0.00     0.263 S 
ATOM     11  O   UNL     1      22.858  32.086  13.408  1.00  0.00    -0.201 OA
ATOM     12  O   UNL     1      20.868  31.813  14.931  1.00  0.00    -0.201 OA
BRANCH  10  13
ATOM     13  N   UNL     1      20.590  32.821  12.606  1.00  0.00    -0.262 N 
ATOM     14  H   UNL     1      19.615  32.888  12.889  1.00  0.00     0.182 HD
BRANCH  13  15
ATOM     15  C   UNL     1      20.747  31.926  11.530  1.00  0.00     0.159 A 
ATOM     16  C   UNL     1      20.380  30.591  11.552  1.00  0.00     0.159 A 
ATOM     17  N   UNL     1      21.270  32.522  10.447  1.00  0.00    -0.227 NA
ATOM     18  N   UNL     1      20.512  29.796  10.466  1.00  0.00    -0.251 NA
ATOM     19  C   UNL     1      21.404  31.744   9.353  1.00  0.00     0.091 A 
ATOM     20  C   UNL     1      21.024  30.374   9.361  1.00  0.00     0.089 A 
ATOM     21  C   UNL     1      21.922  32.289   8.185  1.00  0.00     0.031 A 
ATOM     22  C   UNL     1      21.184  29.623   8.205  1.00  0.00     0.030 A 
ATOM     23  C   UNL     1      22.076  31.523   7.029  1.00  0.00     0.002 A 
ATOM     24  C   UNL     1      21.707  30.185   7.039  1.00  0.00     0.002 A 
ENDBRANCH  13  15
ENDBRANCH  10  13
ENDBRANCH   4  10
TORSDOF 4
ENDMDL
MODEL 2
REMARK VINA RESULT:    -5.910      2.479      6.640
REMARK INTER + INTRA:          -7.502
REMARK INTER:                  -7.146
REMARK INTRA:                  -0.356
REMARK UNBOUND:                -0.383
REMARK SMILES Nc1ccc(S(=O)(=O)Nc2cnc3ccccc3n2)cc1
REMARK SMILES IDX 2 1 3 2 4 3 5 4 20 5 21 6 1 7 6 10 7 11 8 12 9 13 10 15
REMARK SMILES IDX 11 16 19 17 12 18 18 19 13 20 17 21 14 22 16 23 15 24
REMARK H PARENT 1 8 1 9 9 14
ROOT
ATOM      1  C   UNL     1      22.820  33.799   7.555  1.00  0.00     0.031 A 
ATOM      2  C   UNL     1      22.748  32.429   7.283  1.00  0.00     0.027 A 
ATOM      3  C   UNL     1      22.108  31.557   8.168  1.00  0.00     0.024 A 
ATOM      4  C   UNL     1      21.586  32.055   9.363  1.00  0.00     0.088 A 
ATOM      5  C   UNL     1      21.685  33.414   9.670  1.00  0.00     0.024 A 
ATOM      6  C   UNL     1      22.327  34.274   8.774  1.00  0.00     0.027 A 
ENDROOT
BRANCH   1   7
ATOM      7  N   UNL     1      23.567  34.642   6.724  1.00  0.00    -0.399 N 
ATOM      8  H   UNL     1      24.570  34.497   6.783  1.00  0.00     0.156 HD
ATOM      9  H   UNL     1      23.317  35.624   6.803  1.00  0.00     0.156 HD
ENDBRANCH   1   7
BRANCH   4  10
ATOM     10  S   UNL     1      20.772  30.960  10.503  1.00  0.00     0.263 S 
ATOM     11  O   UNL     1      19.676  31.695  11.100  1.00  0.00    -0.201 OA
ATOM     12  O   UNL     1      20.546  29.696   9.833  1.00  0.00    -0.201 OA
BRANCH  10  13
ATOM     13  N   UNL     1      21.916  30.732  11.716  1.00  0.00    -0.262 N 
ATOM     14  H   UNL     1      22.187  29.754  11.791  1.00  0.00     0.182 HD
BRANCH  13  15
ATOM     15  C   UNL     1      21.594  31.268  12.978  1.00  0.00     0.159 A 
ATOM     16  C   UNL     1      20.972  30.569  13.999  1.00  0.00     0.159 A 
ATOM     17  N   UNL     1      21.990  32.545  13.103  1.00  0.00    -0.227 NA
ATOM     18  N   UNL     1      20.736  31.129  15.207  1.00  0.00    -0.251 NA
ATOM     19  C   UNL     1      21.765  33.117  14.304  1.00  0.00     0.091 A 
ATOM     20  C   UNL     1      21.135  32.406  15.362  1.00  0.00     0.089 A 
ATOM     21  C   UNL     1      22.161  34.430  14.520  1.00  0.00     0.031 A 
ATOM     22  C   UNL     1      20.932  33.047  16.577  1.00  0.00     0.030 A 
ATOM     23  C   UNL     1      21.951  35.062  15.747  1.00  0.00     0.002 A 
ATOM     24  C   UNL     1      21.333  34.368  16.779  1.00  0.00     0.002 A 
ENDBRANCH  13  15
ENDBRANCH  10  13
ENDBRANCH   4  10
TORSDOF 4
ENDMDL
MODEL 3
REMARK VINA RESULT:    -5.885      2.082      7.434
REMARK INTER + INTRA:          -7.472
REMARK INTER:                  -7.117
REMARK INTRA:                  -0.355
REMARK UNBOUND:                -0.383
REMARK SMILES Nc1ccc(S(=O)(=O)Nc2cnc3ccccc3n2)cc1
REMARK SMILES IDX 2 1 3 2 4 3 5 4 20 5 21 6 1 7 6 10 7 11 8 12 9 13 10 15
REMARK SMILES IDX 11 16 19 17 12 18 18 19 13 20 17 21 14 22 16 23 15 24
REMARK H PARENT 1 8 1 9 9 14
ROOT
ATOM      1  C   UNL     1      21.963  30.617   7.077  1.00  0.00     0.031 A 
ATOM      2  C   UNL     1      22.029  31.909   7.610  1.00  0.00     0.027 A 
ATOM      3  C   UNL     1      21.628  32.162   8.924  1.00  0.00     0.024 A 
ATOM      4  C   UNL     1      21.101  31.121   9.692  1.00  0.00     0.088 A 
ATOM      5  C   UNL     1      20.990  29.834   9.162  1.00  0.00     0.024 A 
ATOM      6  C   UNL     1      21.396  29.596   7.847  1.00  0.00     0.027 A 
ENDROOT
BRANCH   1   7
ATOM      7  N   UNL     1      22.251  30.398   5.725  1.00  0.00    -0.399 N 
ATOM      8  H   UNL     1      22.423  29.426   5.492  1.00  0.00     0.156 HD
ATOM      9  H   UNL     1      22.970  31.014   5.354  1.00  0.00     0.156 HD
ENDBRANCH   1   7
BRANCH   4  10
ATOM     10  S   UNL     1      20.582  31.424  11.366  1.00  0.00     0.263 S 
ATOM     11  O   UNL     1      19.706  32.577  11.344  1.00  0.00    -0.201 OA
ATOM     12  O   UNL     1      20.148  30.167  11.938  1.00  0.00    -0.201 OA
BRANCH  10  13
ATOM     13  N   UNL     1      21.997  31.909  12.136  1.00  0.00    -0.262 N 
ATOM     14  H   UNL     1      22.627  31.123  12.284  1.00  0.00     0.182 HD
BRANCH  13  15
ATOM     15  C   UNL     1      21.833  32.659  13.317  1.00  0.00     0.159 A 
ATOM     16  C   UNL     1      21.426  32.138  14.533  1.00  0.00     0.159 A 
ATOM     17  N   UNL     1      22.149  33.952  13.145  1.00  0.00    -0.227 NA
ATOM     18  N   UNL     1      21.336  32.906  15.644  1.00  0.00    -0.251 NA
ATOM     19  C   UNL     1      22.069  34.730  14.244  1.00  0.00     0.091 A 
ATOM     20  C   UNL     1      21.660  34.205  15.500  1.00  0.00     0.089 A 
ATOM     21  C   UNL     1      22.395  36.077  14.153  1.00  0.00     0.031 A 
ATOM     22  C   UNL     1      21.597  35.054  16.597  1.00  0.00     0.030 A 
ATOM     23  C   UNL     1      22.329  36.919  15.265  1.00  0.00     0.002 A 
ATOM     24  C   UNL     1      21.928  36.406  16.491  1.00  0.00     0.002 A 
ENDBRANCH  13  15
ENDBRANCH  10  13
ENDBRANCH   4  10
TORSDOF 4
ENDMDL
MODEL 4
REMARK VINA RESULT:    -5.794      2.656      7.547
REMARK INTER + INTRA:          -7.363
REMARK INTER:                  -7.033
REMARK INTRA:                  -0.330
REMARK UNBOUND:                -0.383
REMARK SMILES Nc1ccc(S(=O)(=O)Nc2cnc3ccccc3n2)cc1
REMARK SMILES IDX 2 1 3 2 4 3 5 4 20 5 21 6 1 7 6 10 7 11 8 12 9 13 10 15
REMARK SMILES IDX 11 16 19 17 12 18 18 19 13 20 17 21 14 22 16 23 15 24
REMARK H PARENT 1 8 1 9 9 14
ROOT
ATOM      1  C   UNL     1      21.965  30.625   7.017  1.00  0.00     0.031 A 
ATOM      2  C   UNL     1      22.058  31.919   7.540  1.00  0.00     0.027 A 
ATOM      3  C   UNL     1      21.641  32.194   8.846  1.00  0.00     0.024 A 
ATOM      4  C   UNL     1      21.072  31.175   9.613  1.00  0.00     0.088 A 
ATOM      5  C   UNL     1      20.934  29.887   9.092  1.00  0.00     0.024 A 
ATOM      6  C   UNL     1      21.357  29.626   7.786  1.00  0.00     0.027 A 
ENDROOT
BRANCH   1   7
ATOM      7  N   UNL     1      22.271  30.386   5.673  1.00  0.00    -0.399 N 
ATOM      8  H   UNL     1      23.266  30.341   5.478  1.00  0.00     0.156 HD
ATOM      9  H   UNL     1      21.781  30.997   5.025  1.00  0.00     0.156 HD
ENDBRANCH   1   7
BRANCH   4  10
ATOM     10  S   UNL     1      20.533  31.508  11.274  1.00  0.00     0.263 S 
ATOM     11  O   UNL     1      19.627  32.636  11.216  1.00  0.00    -0.201 OA
ATOM     12  O   UNL     1      20.127  30.255  11.877  1.00  0.00    -0.201 OA
BRANCH  10  13
ATOM     13  N   UNL     1      21.929  32.050  12.041  1.00  0.00    -0.262 N 
ATOM     14  H   UNL     1      22.765  31.729  11.559  1.00  0.00     0.182 HD
BRANCH  13  15
ATOM     15  C   UNL     1      22.012  31.797  13.424  1.00  0.00     0.159 A 
ATOM     16  C   UNL     1      22.708  30.746  13.996  1.00  0.00     0.159 A 
ATOM     17  N   UNL     1      21.359  32.720  14.149  1.00  0.00    -0.227 NA
ATOM     18  N   UNL     1      22.790  30.588  15.337  1.00  0.00    -0.251 NA
ATOM     19  C   UNL     1      21.434  32.580  15.488  1.00  0.00     0.091 A 
ATOM     20  C   UNL     1      22.153  31.509  16.086  1.00  0.00     0.089 A 
ATOM     21  C   UNL     1      20.799  33.503  16.309  1.00  0.00     0.031 A 
ATOM     22  C   UNL     1      22.196  31.416  17.471  1.00  0.00     0.030 A 
ATOM     23  C   UNL     1      20.852  33.398  17.700  1.00  0.00     0.002 A 
ATOM     24  C   UNL     1      21.552  32.351  18.283  1.00  0.00     0.002 A 
ENDBRANCH  13  15
ENDBRANCH  10  13
ENDBRANCH   4  10
TORSDOF 4
ENDMDL
MODEL 5
REMARK VINA RESULT:    -5.616      1.705      2.158
REMARK INTER + INTRA:          -7.148
REMARK INTER:                  -6.895
REMARK INTRA:                  -0.253
REMARK UNBOUND:                -0.383
REMARK SMILES Nc1ccc(S(=O)(=O)Nc2cnc3ccccc3n2)cc1
REMARK SMILES IDX 2 1 3 2 4 3 5 4 20 5 21 6 1 7 6 10 7 11 8 12 9 13 10 15
REMARK SMILES IDX 11 16 19 17 12 18 18 19 13 20 17 21 14 22 16 23 15 24
REMARK H PARENT 1 8 1 9 9 14
ROOT
ATOM      1  C   UNL     1      20.595  36.026  18.359  1.00  0.00     0.031 A 
ATOM      2  C   UNL     1      19.840  34.862  18.175  1.00  0.00     0.027 A 
ATOM      3  C   UNL     1      20.176  33.943  17.176  1.00  0.00     0.024 A 
ATOM      4  C   UNL     1      21.242  34.221  16.319  1.00  0.00     0.088 A 
ATOM      5  C   UNL     1      21.980  35.398  16.463  1.00  0.00     0.024 A 
ATOM      6  C   UNL     1      21.635  36.306  17.467  1.00  0.00     0.027 A 
ENDROOT
BRANCH   1   7
ATOM      7  N   UNL     1      20.178  36.995  19.279  1.00  0.00    -0.399 N 
ATOM      8  H   UNL     1      20.053  37.918  18.877  1.00  0.00     0.156 HD
ATOM      9  H   UNL     1      20.734  37.020  20.129  1.00  0.00     0.156 HD
ENDBRANCH   1   7
BRANCH   4  10
ATOM     10  S   UNL     1      21.682  33.066  15.041  1.00  0.00     0.263 S 
ATOM     11  O   UNL     1      23.017  33.403  14.594  1.00  0.00    -0.201 OA
ATOM     12  O   UNL     1      21.366  31.732  15.510  1.00  0.00    -0.201 OA
BRANCH  10  13
ATOM     13  N   UNL     1      20.638  33.457  13.780  1.00  0.00    -0.262 N 
ATOM     14  H   UNL     1      19.665  33.395  14.072  1.00  0.00     0.182 HD
BRANCH  13  15
ATOM     15  C   UNL     1      20.850  32.774  12.567  1.00  0.00     0.159 A 
ATOM     16  C   UNL     1      20.578  31.432  12.358  1.00  0.00     0.159 A 
ATOM     17  N   UNL     1      21.324  33.582  11.606  1.00  0.00    -0.227 NA
ATOM     18  N   UNL     1      20.759  30.847  11.151  1.00  0.00    -0.251 NA
ATOM     19  C   UNL     1      21.505  33.015  10.395  1.00  0.00     0.091 A 
ATOM     20  C   UNL     1      21.222  31.641  10.166  1.00  0.00     0.089 A 
ATOM     21  C   UNL     1      21.977  33.787   9.342  1.00  0.00     0.031 A 
ATOM     22  C   UNL     1      21.427  31.112   8.898  1.00  0.00     0.030 A 
ATOM     23  C   UNL     1      22.178  33.244   8.072  1.00  0.00     0.002 A 
ATOM     24  C   UNL     1      21.903  31.901   7.849  1.00  0.00     0.002 A 
ENDBRANCH  13  15
ENDBRANCH  10  13
ENDBRANCH   4  10
TORSDOF 4
ENDMDL
MODEL 6
REMARK VINA RESULT:    -5.451      2.928      4.113
REMARK INTER + INTRA:          -6.950
REMARK INTER:                  -6.583
REMARK INTRA:                  -0.367
REMARK UNBOUND:                -0.383
REMARK SMILES Nc1ccc(S(=O)(=O)Nc2cnc3ccccc3n2)cc1
REMARK SMILES IDX 2 1 3 2 4 3 5 4 20 5 21 6 1 7 6 10 7 11 8 12 9 13 10 15
REMARK SMILES IDX 11 16 19 17 12 18 18 19 13 20 17 21 14 22 16 23 15 24
REMARK H PARENT 1 8 1 9 9 14
ROOT
ATOM      1  C   UNL     1      21.383  32.542  16.037  1.00  0.00     0.031 A 
ATOM      2  C   UNL     1      21.348  33.508  15.027  1.00  0.00     0.027 A 
ATOM      3  C   UNL     1      21.070  33.151  13.704  1.00  0.00     0.024 A 
ATOM      4  C   UNL     1      20.883  31.805  13.383  1.00  0.00     0.088 A 
ATOM      5  C   UNL     1      20.955  30.822  14.372  1.00  0.00     0.024 A 
ATOM      6  C   UNL     1      21.232  31.195  15.690  1.00  0.00     0.027 A 
ENDROOT
BRANCH   1   7
ATOM      7  N   UNL     1      21.781  32.892  17.332  1.00  0.00    -0.399 N 
ATOM      8  H   UNL     1      22.573  32.361  17.678  1.00  0.00     0.156 HD
ATOM      9  H   UNL     1      21.018  32.922  18.002  1.00  0.00     0.156 HD
ENDBRANCH   1   7
BRANCH   4  10
ATOM     10  S   UNL     1      20.532  31.331  11.705  1.00  0.00     0.263 S 
ATOM     11  O   UNL     1      20.082  29.955  11.731  1.00  0.00    -0.201 OA
ATOM     12  O   UNL     1      19.724  32.370  11.102  1.00  0.00    -0.201 OA
BRANCH  10  13
ATOM     13  N   UNL     1      22.047  31.330  10.972  1.00  0.00    -0.262 N 
ATOM     14  H   UNL     1      22.791  31.443  11.656  1.00  0.00     0.182 HD
BRANCH  13  15
ATOM     15  C   UNL     1      22.211  32.217   9.890  1.00  0.00     0.159 A 
ATOM     16  C   UNL     1      21.778  31.976   8.597  1.00  0.00     0.159 A 
ATOM     17  N   UNL     1      22.815  33.358  10.257  1.00  0.00    -0.227 NA
ATOM     18  N   UNL     1      21.923  32.893   7.613  1.00  0.00    -0.251 NA
ATOM     19  C   UNL     1      22.963  34.285   9.288  1.00  0.00     0.091 A 
ATOM     20  C   UNL     1      22.516  34.052   7.959  1.00  0.00     0.089 A 
ATOM     21  C   UNL     1      23.564  35.500   9.591  1.00  0.00     0.031 A 
ATOM     22  C   UNL     1      22.694  35.044   7.004  1.00  0.00     0.030 A 
ATOM     23  C   UNL     1      23.736  36.489   8.621  1.00  0.00     0.002 A 
ATOM     24  C   UNL     1      23.301  36.260   7.323  1.00  0.00     0.002 A 
ENDBRANCH  13  15
ENDBRANCH  10  13
ENDBRANCH   4  10
TORSDOF 4
ENDMDL
MODEL 7
REMARK VINA RESULT:    -5.286      3.568      6.093
REMARK INTER + INTRA:          -6.751
REMARK INTER:                  -6.421
REMARK INTRA:                  -0.330
REMARK UNBOUND:                -0.383
REMARK SMILES Nc1ccc(S(=O)(=O)Nc2cnc3ccccc3n2)cc1
REMARK SMILES IDX 2 1 3 2 4 3 5 4 20 5 21 6 1 7 6 10 7 11 8 12 9 13 10 15
REMARK SMILES IDX 11 16 19 17 12 18 18 19 13 20 17 21 14 22 16 23 15 24
REMARK H PARENT 1 8 1 9 9 14
ROOT
ATOM      1  C   UNL     1      23.598  37.279   7.854  1.00  0.00     0.031 A 
ATOM      2  C   UNL     1      22.904  36.509   6.915  1.00  0.00     0.027 A 
ATOM      3  C   UNL     1      22.505  35.203   7.215  1.00  0.00     0.024 A 
ATOM      4  C   UNL     1      22.855  34.645   8.446  1.00  0.00     0.088 A 
ATOM      5  C   UNL     1      23.583  35.386   9.380  1.00  0.00     0.024 A 
ATOM      6  C   UNL     1      23.974  36.691   9.066  1.00  0.00     0.027 A 
ENDROOT
BRANCH   1   7
ATOM      7  N   UNL     1      24.098  38.537   7.500  1.00  0.00    -0.399 N 
ATOM      8  H   UNL     1      23.603  39.313   7.928  1.00  0.00     0.156 HD
ATOM      9  H   UNL     1      24.218  38.665   6.499  1.00  0.00     0.156 HD
ENDBRANCH   1   7
BRANCH   4  10
ATOM     10  S   UNL     1      22.359  32.985   8.845  1.00  0.00     0.263 S 
ATOM     11  O   UNL     1      21.965  32.343   7.608  1.00  0.00    -0.201 OA
ATOM     12  O   UNL     1      23.374  32.403   9.698  1.00  0.00    -0.201 OA
BRANCH  10  13
ATOM     13  N   UNL     1      20.954  33.199   9.746  1.00  0.00    -0.262 N 
ATOM     14  H   UNL     1      20.730  34.186   9.856  1.00  0.00     0.182 HD
BRANCH  13  15
ATOM     15  C   UNL     1      20.903  32.525  10.982  1.00  0.00     0.159 A 
ATOM     16  C   UNL     1      20.739  31.158  11.130  1.00  0.00     0.159 A 
ATOM     17  N   UNL     1      21.065  33.359  12.021  1.00  0.00    -0.227 NA
ATOM     18  N   UNL     1      20.748  30.567  12.347  1.00  0.00    -0.251 NA
ATOM     19  C   UNL     1      21.082  32.783  13.241  1.00  0.00     0.091 A 
ATOM     20  C   UNL     1      20.922  31.380  13.406  1.00  0.00     0.089 A 
ATOM     21  C   UNL     1      21.262  33.575  14.368  1.00  0.00     0.031 A 
ATOM     22  C   UNL     1      20.949  30.844  14.687  1.00  0.00     0.030 A 
ATOM     23  C   UNL     1      21.288  33.023  15.650  1.00  0.00     0.002 A 
ATOM     24  C   UNL     1      21.130  31.653  15.810  1.00  0.00     0.002 A 
ENDBRANCH  13  15
ENDBRANCH  10  13
ENDBRANCH   4  10
TORSDOF 4
ENDMDL
MODEL 8
REMARK VINA RESULT:    -5.163      2.614      3.497
REMARK INTER + INTRA:          -6.603
REMARK INTER:                  -6.375
REMARK INTRA:                  -0.228
REMARK UNBOUND:                -0.383
REMARK SMILES Nc1ccc(S(=O)(=O)Nc2cnc3ccccc3n2)cc1
REMARK SMILES IDX 2 1 3 2 4 3 5 4 20 5 21 6 1 7 6 10 7 11 8 12 9 13 10 15
REMARK SMILES IDX 11 16 19 17 12 18 18 19 13 20 17 21 14 22 16 23 15 24
REMARK H PARENT 1 8 1 9 9 14
ROOT
ATOM      1  C   UNL     1      20.965  37.798  19.041  1.00  0.00     0.031 A 
ATOM      2  C   UNL     1      20.527  36.474  19.140  1.00  0.00     0.027 A 
ATOM      3  C   UNL     1      20.896  35.525  18.181  1.00  0.00     0.024 A 
ATOM      4  C   UNL     1      21.663  35.922  17.085  1.00  0.00     0.088 A 
ATOM      5  C   UNL     1      22.075  37.250  16.950  1.00  0.00     0.024 A 
ATOM      6  C   UNL     1      21.700  38.186  17.916  1.00  0.00     0.027 A 
ENDROOT
BRANCH   1   7
ATOM      7  N   UNL     1      20.491  38.764  19.937  1.00  0.00    -0.399 N 
ATOM      8  H   UNL     1      19.489  38.724  20.094  1.00  0.00     0.156 HD
ATOM      9  H   UNL     1      20.810  39.706  19.731  1.00  0.00     0.156 HD
ENDBRANCH   1   7
BRANCH   4  10
ATOM     10  S   UNL     1      22.139  34.731  15.854  1.00  0.00     0.263 S 
ATOM     11  O   UNL     1      22.444  35.461  14.641  1.00  0.00    -0.201 OA
ATOM     12  O   UNL     1      23.106  33.830  16.447  1.00  0.00    -0.201 OA
BRANCH  10  13
ATOM     13  N   UNL     1      20.718  33.879  15.559  1.00  0.00    -0.262 N 
ATOM     14  H   UNL     1      20.254  33.620  16.427  1.00  0.00     0.182 HD
BRANCH  13  15
ATOM     15  C   UNL     1      20.827  32.775  14.691  1.00  0.00     0.159 A 
ATOM     16  C   UNL     1      20.934  31.456  15.100  1.00  0.00     0.159 A 
ATOM     17  N   UNL     1      20.784  33.138  13.400  1.00  0.00    -0.227 NA
ATOM     18  N   UNL     1      20.986  30.436  14.213  1.00  0.00    -0.251 NA
ATOM     19  C   UNL     1      20.830  32.132  12.502  1.00  0.00     0.091 A 
ATOM     20  C   UNL     1      20.932  30.774  12.910  1.00  0.00     0.089 A 
ATOM     21  C   UNL     1      20.773  32.423  11.146  1.00  0.00     0.031 A 
ATOM     22  C   UNL     1      20.974  29.781  11.940  1.00  0.00     0.030 A 
ATOM     23  C   UNL     1      20.816  31.415  10.182  1.00  0.00     0.002 A 
ATOM     24  C   UNL     1      20.917  30.089  10.580  1.00  0.00     0.002 A 
ENDBRANCH  13  15
ENDBRANCH  10  13
ENDBRANCH   4  10
TORSDOF 4
ENDMDL
MODEL 9
REMARK VINA RESULT:    -4.941      2.260      2.733
REMARK INTER + INTRA:          -6.335
REMARK INTER:                  -5.977
REMARK INTRA:                  -0.358
REMARK UNBOUND:                -0.383
REMARK SMILES Nc1ccc(S(=O)(=O)Nc2cnc3ccccc3n2)cc1
REMARK SMILES IDX 2 1 3 2 4 3 5 4 20 5 21 6 1 7 6 10 7 11 8 12 9 13 10 15
REMARK SMILES IDX 11 16 19 17 12 18 18 19 13 20 17 21 14 22 16 23 15 24
REMARK H PARENT 1 8 1 9 9 14
ROOT
ATOM      1  C   UNL     1      24.417  37.704  11.641  1.00  0.00     0.031 A 
ATOM      2  C   UNL     1      23.497  38.079  12.626  1.00  0.00     0.027 A 
ATOM      3  C   UNL     1      22.858  37.116  13.413  1.00  0.00     0.024 A 
ATOM      4  C   UNL     1      23.103  35.762  13.171  1.00  0.00     0.088 A 
ATOM      5  C   UNL     1      23.988  35.369  12.165  1.00  0.00     0.024 A 
ATOM      6  C   UNL     1      24.619  36.343  11.388  1.00  0.00     0.027 A 
ENDROOT
BRANCH   1   7
ATOM      7  N   UNL     1      24.957  38.665  10.780  1.00  0.00    -0.399 N 
ATOM      8  H   UNL     1      25.920  38.488  10.514  1.00  0.00     0.156 HD
ATOM      9  H   UNL     1      24.816  39.622  11.093  1.00  0.00     0.156 HD
ENDBRANCH   1   7
BRANCH   4  10
ATOM     10  S   UNL     1      22.297  34.523  14.160  1.00  0.00     0.263 S 
ATOM     11  O   UNL     1      23.116  33.329  14.107  1.00  0.00    -0.201 OA
ATOM     12  O   UNL     1      21.933  35.122  15.427  1.00  0.00    -0.201 OA
BRANCH  10  13
ATOM     13  N   UNL     1      20.893  34.183  13.298  1.00  0.00    -0.262 N 
ATOM     14  H   UNL     1      20.080  34.157  13.909  1.00  0.00     0.182 HD
BRANCH  13  15
ATOM     15  C   UNL     1      20.937  33.049  12.464  1.00  0.00     0.159 A 
ATOM     16  C   UNL     1      20.628  31.760  12.866  1.00  0.00     0.159 A 
ATOM     17  N   UNL     1      21.288  33.357  11.206  1.00  0.00    -0.227 NA
ATOM     18  N   UNL     1      20.644  30.720  12.001  1.00  0.00    -0.251 NA
ATOM     19  C   UNL     1      21.304  32.332  10.330  1.00  0.00     0.091 A 
ATOM     20  C   UNL     1      20.981  31.006  10.728  1.00  0.00     0.089 A 
ATOM     21  C   UNL     1      21.640  32.571   9.004  1.00  0.00     0.031 A 
ATOM     22  C   UNL     1      21.013  29.990   9.782  1.00  0.00     0.030 A 
ATOM     23  C   UNL     1      21.668  31.541   8.062  1.00  0.00     0.002 A 
ATOM     24  C   UNL     1      21.354  30.246   8.452  1.00  0.00     0.002 A 
ENDBRANCH  13  15
ENDBRANCH  10  13
ENDBRANCH   4  10
TORSDOF 4
ENDMDL
