MODEL 1
REMARK VINA RESULT:    -5.563      0.000      0.000
REMARK INTER + INTRA:          -8.128
REMARK INTER:                  -6.864
REMARK INTRA:                  -1.264
REMARK UNBOUND:                -1.264
REMARK SMILES Cc1cc(C)cc(NC(N)=[NH+]c2ccccc2C(F)(F)F)c1
REMARK SMILES IDX 11 1 9 3 8 4 10 5 7 9 22 10 6 11 2 12 4 13 3 14 1 15 5 16
REMARK SMILES IDX 12 17 13 18 17 19 14 20 16 21 15 22 18 23 19 24 20 25 21 26
REMARK H PARENT 11 2 8 6 10 7 10 8
ROOT
ATOM      1  N   UNL     1      18.570  43.534  10.113  1.00  0.00    -0.245 N 
ATOM      2  H   UNL     1      17.813  43.062  10.605  1.00  0.00     0.267 HD
ENDROOT
BRANCH   1   3
ATOM      3  C   UNL     1      18.257  44.711   9.512  1.00  0.00     0.351 C 
ATOM      4  N   UNL     1      18.812  45.884   9.903  1.00  0.00    -0.245 N 
ATOM      5  N   UNL     1      17.374  44.776   8.495  1.00  0.00    -0.290 N 
ATOM      6  H   UNL     1      18.894  46.612   9.203  1.00  0.00     0.267 HD
ATOM      7  H   UNL     1      17.118  45.661   8.079  1.00  0.00     0.256 HD
ATOM      8  H   UNL     1      16.796  43.980   8.261  1.00  0.00     0.256 HD
BRANCH   4   9
ATOM      9  C   UNL     1      19.367  46.162  11.182  1.00  0.00     0.100 A 
ATOM     10  C   UNL     1      18.483  46.487  12.212  1.00  0.00     0.046 A 
ATOM     11  C   UNL     1      20.732  46.041  11.455  1.00  0.00     0.046 A 
ATOM     12  C   UNL     1      18.958  46.743  13.504  1.00  0.00    -0.047 A 
ATOM     13  C   UNL     1      21.228  46.324  12.733  1.00  0.00    -0.047 A 
ATOM     14  C   UNL     1      20.334  46.675  13.751  1.00  0.00     0.007 A 
ATOM     15  C   UNL     1      18.012  47.142  14.601  1.00  0.00     0.044 C 
ATOM     16  C   UNL     1      22.694  46.180  13.031  1.00  0.00     0.044 C 
ENDBRANCH   4   9
ENDBRANCH   1   3
BRANCH   1  17
ATOM     17  C   UNL     1      19.860  42.927  10.200  1.00  0.00     0.111 A 
ATOM     18  C   UNL     1      20.761  42.984   9.130  1.00  0.00     0.043 A 
ATOM     19  C   UNL     1      20.270  42.341  11.409  1.00  0.00     0.094 A 
ATOM     20  C   UNL     1      22.030  42.411   9.233  1.00  0.00     0.004 A 
ATOM     21  C   UNL     1      21.547  41.759  11.499  1.00  0.00     0.017 A 
ATOM     22  C   UNL     1      22.419  41.791  10.414  1.00  0.00     0.001 A 
BRANCH  19  23
ATOM     23  C   UNL     1      19.338  42.268  12.586  1.00  0.00     0.419 C 
ATOM     24  F   UNL     1      19.174  43.480  13.182  1.00  0.00    -0.166 F 
ATOM     25  F   UNL     1      18.098  41.807  12.290  1.00  0.00    -0.166 F 
ATOM     26  F   UNL     1      19.826  41.450  13.566  1.00  0.00    -0.166 F 
ENDBRANCH  19  23
ENDBRANCH   1  17
TORSDOF 4
ENDMDL
MODEL 2
REMARK VINA RESULT:    -5.391      4.252      5.691
REMARK INTER + INTRA:          -7.915
REMARK INTER:                  -7.206
REMARK INTRA:                  -0.709
REMARK UNBOUND:                -1.264
REMARK SMILES Cc1cc(C)cc(NC(N)=[NH+]c2ccccc2C(F)(F)F)c1
REMARK SMILES IDX 11 1 9 3 8 4 10 5 7 9 22 10 6 11 2 12 4 13 3 14 1 15 5 16
REMARK SMILES IDX 12 17 13 18 17 19 14 20 16 21 15 22 18 23 19 24 20 25 21 26
REMARK H PARENT 11 2 8 6 10 7 10 8
ROOT
ATOM      1  N   UNL     1      22.457  41.294   7.895  1.00  0.00    -0.245 N 
ATOM      2  H   UNL     1      21.499  41.169   7.569  1.00  0.00     0.267 HD
ENDROOT
BRANCH   1   3
ATOM      3  C   UNL     1      22.933  42.567   7.891  1.00  0.00     0.351 C 
ATOM      4  N   UNL     1      22.546  43.477   8.818  1.00  0.00    -0.245 N 
ATOM      5  N   UNL     1      23.813  42.993   6.963  1.00  0.00    -0.290 N 
ATOM      6  H   UNL     1      23.203  44.216   9.040  1.00  0.00     0.267 HD
ATOM      7  H   UNL     1      24.132  43.952   6.945  1.00  0.00     0.256 HD
ATOM      8  H   UNL     1      24.017  42.431   6.147  1.00  0.00     0.256 HD
BRANCH   4   9
ATOM      9  C   UNL     1      21.340  43.446   9.569  1.00  0.00     0.100 A 
ATOM     10  C   UNL     1      20.261  44.189   9.089  1.00  0.00     0.046 A 
ATOM     11  C   UNL     1      21.178  42.646  10.704  1.00  0.00     0.046 A 
ATOM     12  C   UNL     1      19.034  44.180   9.762  1.00  0.00    -0.047 A 
ATOM     13  C   UNL     1      19.969  42.649  11.408  1.00  0.00    -0.047 A 
ATOM     14  C   UNL     1      18.902  43.420  10.931  1.00  0.00     0.007 A 
ATOM     15  C   UNL     1      17.887  45.018   9.274  1.00  0.00     0.044 C 
ATOM     16  C   UNL     1      19.789  41.779  12.620  1.00  0.00     0.044 C 
ENDBRANCH   4   9
ENDBRANCH   1   3
BRANCH   1  17
ATOM     17  C   UNL     1      23.122  40.126   8.378  1.00  0.00     0.111 A 
ATOM     18  C   UNL     1      23.779  40.126   9.615  1.00  0.00     0.043 A 
ATOM     19  C   UNL     1      23.041  38.930   7.646  1.00  0.00     0.094 A 
ATOM     20  C   UNL     1      24.404  38.972  10.092  1.00  0.00     0.004 A 
ATOM     21  C   UNL     1      23.681  37.776   8.132  1.00  0.00     0.017 A 
ATOM     22  C   UNL     1      24.363  37.800   9.346  1.00  0.00     0.001 A 
BRANCH  19  23
ATOM     23  C   UNL     1      22.337  38.883   6.320  1.00  0.00     0.419 C 
ATOM     24  F   UNL     1      21.006  39.137   6.440  1.00  0.00    -0.166 F 
ATOM     25  F   UNL     1      22.818  39.754   5.400  1.00  0.00    -0.166 F 
ATOM     26  F   UNL     1      22.416  37.643   5.749  1.00  0.00    -0.166 F 
ENDBRANCH  19  23
ENDBRANCH   1  17
TORSDOF 4
ENDMDL
MODEL 3
REMARK VINA RESULT:    -5.388     10.396     12.832
REMARK INTER + INTRA:          -7.912
REMARK INTER:                  -7.018
REMARK INTRA:                  -0.895
REMARK UNBOUND:                -1.264
REMARK SMILES Cc1cc(C)cc(NC(N)=[NH+]c2ccccc2C(F)(F)F)c1
REMARK SMILES IDX 11 1 9 3 8 4 10 5 7 9 22 10 6 11 2 12 4 13 3 14 1 15 5 16
REMARK SMILES IDX 12 17 13 18 17 19 14 20 16 21 15 22 18 23 19 24 20 25 21 26
REMARK H PARENT 11 2 8 6 10 7 10 8
ROOT
ATOM      1  N   UNL     1      20.532  31.274  10.890  1.00  0.00    -0.245 N 
ATOM      2  H   UNL     1      19.932  32.098  10.926  1.00  0.00     0.267 HD
ENDROOT
BRANCH   1   3
ATOM      3  C   UNL     1      20.633  30.552  12.036  1.00  0.00     0.351 C 
ATOM      4  N   UNL     1      21.166  31.075  13.167  1.00  0.00    -0.245 N 
ATOM      5  N   UNL     1      20.211  29.273  12.108  1.00  0.00    -0.290 N 
ATOM      6  H   UNL     1      20.842  30.694  14.049  1.00  0.00     0.267 HD
ATOM      7  H   UNL     1      20.326  28.731  12.954  1.00  0.00     0.256 HD
ATOM      8  H   UNL     1      19.962  28.763  11.271  1.00  0.00     0.256 HD
BRANCH   4   9
ATOM      9  C   UNL     1      22.075  32.165  13.237  1.00  0.00     0.100 A 
ATOM     10  C   UNL     1      23.426  31.894  13.013  1.00  0.00     0.046 A 
ATOM     11  C   UNL     1      21.658  33.484  13.435  1.00  0.00     0.046 A 
ATOM     12  C   UNL     1      24.373  32.925  13.037  1.00  0.00    -0.047 A 
ATOM     13  C   UNL     1      22.594  34.523  13.494  1.00  0.00    -0.047 A 
ATOM     14  C   UNL     1      23.949  34.235  13.295  1.00  0.00     0.007 A 
ATOM     15  C   UNL     1      25.832  32.628  12.846  1.00  0.00     0.044 C 
ATOM     16  C   UNL     1      22.145  35.943  13.693  1.00  0.00     0.044 C 
ENDBRANCH   4   9
ENDBRANCH   1   3
BRANCH   1  17
ATOM     17  C   UNL     1      21.108  30.963   9.621  1.00  0.00     0.111 A 
ATOM     18  C   UNL     1      20.985  29.684   9.064  1.00  0.00     0.043 A 
ATOM     19  C   UNL     1      21.731  31.978   8.876  1.00  0.00     0.094 A 
ATOM     20  C   UNL     1      21.529  29.396   7.810  1.00  0.00     0.004 A 
ATOM     21  C   UNL     1      22.283  31.674   7.619  1.00  0.00     0.017 A 
ATOM     22  C   UNL     1      22.186  30.389   7.092  1.00  0.00     0.001 A 
BRANCH  19  23
ATOM     23  C   UNL     1      21.875  33.366   9.432  1.00  0.00     0.419 C 
ATOM     24  F   UNL     1      21.965  34.302   8.449  1.00  0.00    -0.166 F 
ATOM     25  F   UNL     1      20.861  33.751  10.245  1.00  0.00    -0.166 F 
ATOM     26  F   UNL     1      23.022  33.501  10.163  1.00  0.00    -0.166 F 
ENDBRANCH  19  23
ENDBRANCH   1  17
TORSDOF 4
ENDMDL
MODEL 4
REMARK VINA RESULT:    -5.382     10.413     12.737
REMARK INTER + INTRA:          -7.904
REMARK INTER:                  -6.986
REMARK INTRA:                  -0.918
REMARK UNBOUND:                -1.264
REMARK SMILES Cc1cc(C)cc(NC(N)=[NH+]c2ccccc2C(F)(F)F)c1
REMARK SMILES IDX 11 1 9 3 8 4 10 5 7 9 22 10 6 11 2 12 4 13 3 14 1 15 5 16
REMARK SMILES IDX 12 17 13 18 17 19 14 20 16 21 15 22 18 23 19 24 20 25 21 26
REMARK H PARENT 11 2 8 6 10 7 10 8
ROOT
ATOM      1  N   UNL     1      20.536  31.251  10.820  1.00  0.00    -0.245 N 
ATOM      2  H   UNL     1      19.919  32.062  10.844  1.00  0.00     0.267 HD
ENDROOT
BRANCH   1   3
ATOM      3  C   UNL     1      20.654  30.548  11.976  1.00  0.00     0.351 C 
ATOM      4  N   UNL     1      21.248  31.074  13.075  1.00  0.00    -0.245 N 
ATOM      5  N   UNL     1      20.191  29.288  12.091  1.00  0.00    -0.290 N 
ATOM      6  H   UNL     1      20.945  30.723  13.976  1.00  0.00     0.267 HD
ATOM      7  H   UNL     1      20.318  28.758  12.943  1.00  0.00     0.256 HD
ATOM      8  H   UNL     1      19.892  28.770  11.275  1.00  0.00     0.256 HD
BRANCH   4   9
ATOM      9  C   UNL     1      22.198  32.131  13.088  1.00  0.00     0.100 A 
ATOM     10  C   UNL     1      21.728  33.419  13.353  1.00  0.00     0.046 A 
ATOM     11  C   UNL     1      23.570  31.915  12.930  1.00  0.00     0.046 A 
ATOM     12  C   UNL     1      22.613  34.502  13.411  1.00  0.00    -0.047 A 
ATOM     13  C   UNL     1      24.465  32.990  12.952  1.00  0.00    -0.047 A 
ATOM     14  C   UNL     1      23.978  34.281  13.192  1.00  0.00     0.007 A 
ATOM     15  C   UNL     1      22.103  35.894  13.647  1.00  0.00     0.044 C 
ATOM     16  C   UNL     1      25.941  32.757  12.796  1.00  0.00     0.044 C 
ENDBRANCH   4   9
ENDBRANCH   1   3
BRANCH   1  17
ATOM     17  C   UNL     1      21.118  30.933   9.554  1.00  0.00     0.111 A 
ATOM     18  C   UNL     1      20.999  29.651   9.004  1.00  0.00     0.043 A 
ATOM     19  C   UNL     1      21.741  31.945   8.805  1.00  0.00     0.094 A 
ATOM     20  C   UNL     1      21.548  29.356   7.754  1.00  0.00     0.004 A 
ATOM     21  C   UNL     1      22.298  31.635   7.551  1.00  0.00     0.017 A 
ATOM     22  C   UNL     1      22.205  30.346   7.032  1.00  0.00     0.001 A 
BRANCH  19  23
ATOM     23  C   UNL     1      21.879  33.337   9.353  1.00  0.00     0.419 C 
ATOM     24  F   UNL     1      21.977  34.267   8.365  1.00  0.00    -0.166 F 
ATOM     25  F   UNL     1      20.859  33.726  10.156  1.00  0.00    -0.166 F 
ATOM     26  F   UNL     1      23.021  33.478  10.091  1.00  0.00    -0.166 F 
ENDBRANCH  19  23
ENDBRANCH   1  17
TORSDOF 4
ENDMDL
MODEL 5
REMARK VINA RESULT:    -5.221      4.267      5.800
REMARK INTER + INTRA:          -7.706
REMARK INTER:                  -7.079
REMARK INTRA:                  -0.626
REMARK UNBOUND:                -1.264
REMARK SMILES Cc1cc(C)cc(NC(N)=[NH+]c2ccccc2C(F)(F)F)c1
REMARK SMILES IDX 11 1 9 3 8 4 10 5 7 9 22 10 6 11 2 12 4 13 3 14 1 15 5 16
REMARK SMILES IDX 12 17 13 18 17 19 14 20 16 21 15 22 18 23 19 24 20 25 21 26
REMARK H PARENT 11 2 8 6 10 7 10 8
ROOT
ATOM      1  N   UNL     1      22.548  41.305   7.855  1.00  0.00    -0.245 N 
ATOM      2  H   UNL     1      21.609  41.196   7.473  1.00  0.00     0.267 HD
ENDROOT
BRANCH   1   3
ATOM      3  C   UNL     1      23.036  42.572   7.902  1.00  0.00     0.351 C 
ATOM      4  N   UNL     1      22.584  43.480   8.802  1.00  0.00    -0.245 N 
ATOM      5  N   UNL     1      23.993  42.996   7.053  1.00  0.00    -0.290 N 
ATOM      6  H   UNL     1      23.228  44.210   9.083  1.00  0.00     0.267 HD
ATOM      7  H   UNL     1      24.323  43.951   7.069  1.00  0.00     0.256 HD
ATOM      8  H   UNL     1      24.258  42.437   6.251  1.00  0.00     0.256 HD
BRANCH   4   9
ATOM      9  C   UNL     1      21.320  43.457   9.451  1.00  0.00     0.100 A 
ATOM     10  C   UNL     1      21.207  42.698  10.617  1.00  0.00     0.046 A 
ATOM     11  C   UNL     1      20.234  44.220   9.015  1.00  0.00     0.046 A 
ATOM     12  C   UNL     1      19.999  42.654  11.324  1.00  0.00    -0.047 A 
ATOM     13  C   UNL     1      19.009  44.163   9.690  1.00  0.00    -0.047 A 
ATOM     14  C   UNL     1      18.900  43.377  10.844  1.00  0.00     0.007 A 
ATOM     15  C   UNL     1      19.862  41.799  12.551  1.00  0.00     0.044 C 
ATOM     16  C   UNL     1      17.845  44.994   9.230  1.00  0.00     0.044 C 
ENDBRANCH   4   9
ENDBRANCH   1   3
BRANCH   1  17
ATOM     17  C   UNL     1      23.172  40.122   8.355  1.00  0.00     0.111 A 
ATOM     18  C   UNL     1      23.833  40.118   9.589  1.00  0.00     0.043 A 
ATOM     19  C   UNL     1      23.045  38.918   7.642  1.00  0.00     0.094 A 
ATOM     20  C   UNL     1      24.418  38.950  10.083  1.00  0.00     0.004 A 
ATOM     21  C   UNL     1      23.645  37.750   8.144  1.00  0.00     0.017 A 
ATOM     22  C   UNL     1      24.332  37.768   9.356  1.00  0.00     0.001 A 
BRANCH  19  23
ATOM     23  C   UNL     1      22.334  38.876   6.320  1.00  0.00     0.419 C 
ATOM     24  F   UNL     1      22.817  39.804   5.451  1.00  0.00    -0.166 F 
ATOM     25  F   UNL     1      22.400  37.678   5.687  1.00  0.00    -0.166 F 
ATOM     26  F   UNL     1      21.004  39.165   6.451  1.00  0.00    -0.166 F 
ENDBRANCH  19  23
ENDBRANCH   1  17
TORSDOF 4
ENDMDL
MODEL 6
REMARK VINA RESULT:    -5.213     11.446     13.697
REMARK INTER + INTRA:          -7.696
REMARK INTER:                  -6.457
REMARK INTRA:                  -1.238
REMARK UNBOUND:                -1.264
REMARK SMILES Cc1cc(C)cc(NC(N)=[NH+]c2ccccc2C(F)(F)F)c1
REMARK SMILES IDX 11 1 9 3 8 4 10 5 7 9 22 10 6 11 2 12 4 13 3 14 1 15 5 16
REMARK SMILES IDX 12 17 13 18 17 19 14 20 16 21 15 22 18 23 19 24 20 25 21 26
REMARK H PARENT 11 2 8 6 10 7 10 8
ROOT
ATOM      1  N   UNL     1      22.841  30.412  11.751  1.00  0.00    -0.245 N 
ATOM      2  H   UNL     1      22.107  29.724  11.586  1.00  0.00     0.267 HD
ENDROOT
BRANCH   1   3
ATOM      3  C   UNL     1      24.061  30.131  11.222  1.00  0.00     0.351 C 
ATOM      4  N   UNL     1      24.524  30.765  10.117  1.00  0.00    -0.245 N 
ATOM      5  N   UNL     1      24.873  29.203  11.765  1.00  0.00    -0.290 N 
ATOM      6  H   UNL     1      25.529  30.849  10.021  1.00  0.00     0.267 HD
ATOM      7  H   UNL     1      25.762  28.972  11.342  1.00  0.00     0.256 HD
ATOM      8  H   UNL     1      24.534  28.573  12.481  1.00  0.00     0.256 HD
BRANCH   4   9
ATOM      9  C   UNL     1      23.731  31.396   9.120  1.00  0.00     0.100 A 
ATOM     10  C   UNL     1      23.145  30.581   8.150  1.00  0.00     0.046 A 
ATOM     11  C   UNL     1      23.458  32.766   9.129  1.00  0.00     0.046 A 
ATOM     12  C   UNL     1      22.328  31.133   7.156  1.00  0.00    -0.047 A 
ATOM     13  C   UNL     1      22.670  33.340   8.125  1.00  0.00    -0.047 A 
ATOM     14  C   UNL     1      22.109  32.516   7.142  1.00  0.00     0.007 A 
ATOM     15  C   UNL     1      21.737  30.264   6.083  1.00  0.00     0.044 C 
ATOM     16  C   UNL     1      22.364  34.811   8.142  1.00  0.00     0.044 C 
ENDBRANCH   4   9
ENDBRANCH   1   3
BRANCH   1  17
ATOM     17  C   UNL     1      22.456  31.601  12.442  1.00  0.00     0.111 A 
ATOM     18  C   UNL     1      23.344  32.260  13.301  1.00  0.00     0.043 A 
ATOM     19  C   UNL     1      21.197  32.171  12.189  1.00  0.00     0.094 A 
ATOM     20  C   UNL     1      22.967  33.437  13.952  1.00  0.00     0.004 A 
ATOM     21  C   UNL     1      20.825  33.352  12.857  1.00  0.00     0.017 A 
ATOM     22  C   UNL     1      21.705  33.977  13.737  1.00  0.00     0.001 A 
BRANCH  19  23
ATOM     23  C   UNL     1      20.218  31.503  11.266  1.00  0.00     0.419 C 
ATOM     24  F   UNL     1      19.038  32.175  11.201  1.00  0.00    -0.166 F 
ATOM     25  F   UNL     1      20.658  31.360   9.992  1.00  0.00    -0.166 F 
ATOM     26  F   UNL     1      19.892  30.247  11.699  1.00  0.00    -0.166 F 
ENDBRANCH  19  23
ENDBRANCH   1  17
TORSDOF 4
ENDMDL
MODEL 7
REMARK VINA RESULT:    -5.057     11.529     13.103
REMARK INTER + INTRA:          -7.504
REMARK INTER:                  -6.539
REMARK INTRA:                  -0.965
REMARK UNBOUND:                -1.264
REMARK SMILES Cc1cc(C)cc(NC(N)=[NH+]c2ccccc2C(F)(F)F)c1
REMARK SMILES IDX 11 1 9 3 8 4 10 5 7 9 22 10 6 11 2 12 4 13 3 14 1 15 5 16
REMARK SMILES IDX 12 17 13 18 17 19 14 20 16 21 15 22 18 23 19 24 20 25 21 26
REMARK H PARENT 11 2 8 6 10 7 10 8
ROOT
ATOM      1  N   UNL     1      21.424  31.317   7.829  1.00  0.00    -0.245 N 
ATOM      2  H   UNL     1      20.611  31.918   7.703  1.00  0.00     0.267 HD
ENDROOT
BRANCH   1   3
ATOM      3  C   UNL     1      21.199  30.114   8.420  1.00  0.00     0.351 C 
ATOM      4  N   UNL     1      21.173  29.973   9.768  1.00  0.00    -0.245 N 
ATOM      5  N   UNL     1      20.994  28.996   7.696  1.00  0.00    -0.290 N 
ATOM      6  H   UNL     1      20.606  29.221  10.142  1.00  0.00     0.267 HD
ATOM      7  H   UNL     1      20.866  28.098   8.143  1.00  0.00     0.256 HD
ATOM      8  H   UNL     1      21.165  28.986   6.699  1.00  0.00     0.256 HD
BRANCH   4   9
ATOM      9  C   UNL     1      21.800  30.831  10.711  1.00  0.00     0.100 A 
ATOM     10  C   UNL     1      20.975  31.599  11.534  1.00  0.00     0.046 A 
ATOM     11  C   UNL     1      23.185  30.867  10.894  1.00  0.00     0.046 A 
ATOM     12  C   UNL     1      21.525  32.443  12.506  1.00  0.00    -0.047 A 
ATOM     13  C   UNL     1      23.754  31.729  11.838  1.00  0.00    -0.047 A 
ATOM     14  C   UNL     1      22.917  32.514  12.640  1.00  0.00     0.007 A 
ATOM     15  C   UNL     1      20.640  33.306  13.359  1.00  0.00     0.044 C 
ATOM     16  C   UNL     1      25.242  31.758  12.046  1.00  0.00     0.044 C 
ENDBRANCH   4   9
ENDBRANCH   1   3
BRANCH   1  17
ATOM     17  C   UNL     1      22.659  31.797   7.295  1.00  0.00     0.111 A 
ATOM     18  C   UNL     1      23.388  31.044   6.367  1.00  0.00     0.043 A 
ATOM     19  C   UNL     1      23.105  33.085   7.634  1.00  0.00     0.094 A 
ATOM     20  C   UNL     1      24.581  31.532   5.829  1.00  0.00     0.004 A 
ATOM     21  C   UNL     1      24.312  33.564   7.094  1.00  0.00     0.017 A 
ATOM     22  C   UNL     1      25.047  32.789   6.200  1.00  0.00     0.001 A 
BRANCH  19  23
ATOM     23  C   UNL     1      22.347  33.931   8.617  1.00  0.00     0.419 C 
ATOM     24  F   UNL     1      22.068  35.165   8.119  1.00  0.00    -0.166 F 
ATOM     25  F   UNL     1      21.168  33.398   9.022  1.00  0.00    -0.166 F 
ATOM     26  F   UNL     1      23.073  34.158   9.753  1.00  0.00    -0.166 F 
ENDBRANCH  19  23
ENDBRANCH   1  17
TORSDOF 4
ENDMDL
MODEL 8
REMARK VINA RESULT:    -5.040     11.467     13.821
REMARK INTER + INTRA:          -7.483
REMARK INTER:                  -7.158
REMARK INTRA:                  -0.325
REMARK UNBOUND:                -1.264
REMARK SMILES Cc1cc(C)cc(NC(N)=[NH+]c2ccccc2C(F)(F)F)c1
REMARK SMILES IDX 11 1 9 3 8 4 10 5 7 9 22 10 6 11 2 12 4 13 3 14 1 15 5 16
REMARK SMILES IDX 12 17 13 18 17 19 14 20 16 21 15 22 18 23 19 24 20 25 21 26
REMARK H PARENT 11 2 8 6 10 7 10 8
ROOT
ATOM      1  N   UNL     1      22.089  30.894  11.819  1.00  0.00    -0.245 N 
ATOM      2  H   UNL     1      22.728  31.192  11.083  1.00  0.00     0.267 HD
ENDROOT
BRANCH   1   3
ATOM      3  C   UNL     1      21.065  30.087  11.438  1.00  0.00     0.351 C 
ATOM      4  N   UNL     1      20.864  29.751  10.140  1.00  0.00    -0.245 N 
ATOM      5  N   UNL     1      20.191  29.581  12.330  1.00  0.00    -0.290 N 
ATOM      6  H   UNL     1      20.406  28.865   9.959  1.00  0.00     0.267 HD
ATOM      7  H   UNL     1      19.408  29.013  12.034  1.00  0.00     0.256 HD
ATOM      8  H   UNL     1      20.171  29.918  13.284  1.00  0.00     0.256 HD
BRANCH   4   9
ATOM      9  C   UNL     1      21.309  30.485   9.007  1.00  0.00     0.100 A 
ATOM     10  C   UNL     1      21.325  29.826   7.777  1.00  0.00     0.046 A 
ATOM     11  C   UNL     1      21.643  31.840   9.070  1.00  0.00     0.046 A 
ATOM     12  C   UNL     1      21.723  30.497   6.615  1.00  0.00    -0.047 A 
ATOM     13  C   UNL     1      22.075  32.518   7.925  1.00  0.00    -0.047 A 
ATOM     14  C   UNL     1      22.112  31.839   6.701  1.00  0.00     0.007 A 
ATOM     15  C   UNL     1      21.788  29.775   5.299  1.00  0.00     0.044 C 
ATOM     16  C   UNL     1      22.421  33.979   7.988  1.00  0.00     0.044 C 
ENDBRANCH   4   9
ENDBRANCH   1   3
BRANCH   1  17
ATOM     17  C   UNL     1      22.414  31.304  13.148  1.00  0.00     0.111 A 
ATOM     18  C   UNL     1      23.161  30.480  13.999  1.00  0.00     0.043 A 
ATOM     19  C   UNL     1      22.059  32.593  13.581  1.00  0.00     0.094 A 
ATOM     20  C   UNL     1      23.498  30.900  15.287  1.00  0.00     0.004 A 
ATOM     21  C   UNL     1      22.396  33.003  14.884  1.00  0.00     0.017 A 
ATOM     22  C   UNL     1      23.107  32.158  15.733  1.00  0.00     0.001 A 
BRANCH  19  23
ATOM     23  C   UNL     1      21.268  33.514  12.697  1.00  0.00     0.419 C 
ATOM     24  F   UNL     1      21.930  33.809  11.546  1.00  0.00    -0.166 F 
ATOM     25  F   UNL     1      20.052  33.035  12.336  1.00  0.00    -0.166 F 
ATOM     26  F   UNL     1      21.039  34.720  13.298  1.00  0.00    -0.166 F 
ENDBRANCH  19  23
ENDBRANCH   1  17
TORSDOF 4
ENDMDL
MODEL 9
REMARK VINA RESULT:    -4.916     11.036     13.254
REMARK INTER + INTRA:          -7.330
REMARK INTER:                  -6.083
REMARK INTRA:                  -1.247
REMARK UNBOUND:                -1.264
REMARK SMILES Cc1cc(C)cc(NC(N)=[NH+]c2ccccc2C(F)(F)F)c1
REMARK SMILES IDX 11 1 9 3 8 4 10 5 7 9 22 10 6 11 2 12 4 13 3 14 1 15 5 16
REMARK SMILES IDX 12 17 13 18 17 19 14 20 16 21 15 22 18 23 19 24 20 25 21 26
REMARK H PARENT 11 2 8 6 10 7 10 8
ROOT
ATOM      1  N   UNL     1      22.039  30.253  10.008  1.00  0.00    -0.245 N 
ATOM      2  H   UNL     1      22.731  29.814  10.614  1.00  0.00     0.267 HD
ENDROOT
BRANCH   1   3
ATOM      3  C   UNL     1      20.987  30.849  10.628  1.00  0.00     0.351 C 
ATOM      4  N   UNL     1      20.749  32.179  10.512  1.00  0.00    -0.245 N 
ATOM      5  N   UNL     1      20.125  30.151  11.393  1.00  0.00    -0.290 N 
ATOM      6  H   UNL     1      19.788  32.486  10.607  1.00  0.00     0.267 HD
ATOM      7  H   UNL     1      19.368  30.609  11.882  1.00  0.00     0.256 HD
ATOM      8  H   UNL     1      20.329  29.198  11.664  1.00  0.00     0.256 HD
BRANCH   4   9
ATOM      9  C   UNL     1      21.709  33.176  10.189  1.00  0.00     0.100 A 
ATOM     10  C   UNL     1      21.751  33.628   8.869  1.00  0.00     0.046 A 
ATOM     11  C   UNL     1      22.539  33.764  11.148  1.00  0.00     0.046 A 
ATOM     12  C   UNL     1      22.651  34.630   8.488  1.00  0.00    -0.047 A 
ATOM     13  C   UNL     1      23.468  34.743  10.778  1.00  0.00    -0.047 A 
ATOM     14  C   UNL     1      23.518  35.170   9.446  1.00  0.00     0.007 A 
ATOM     15  C   UNL     1      22.730  35.083   7.058  1.00  0.00     0.044 C 
ATOM     16  C   UNL     1      24.350  35.386  11.810  1.00  0.00     0.044 C 
ENDBRANCH   4   9
ENDBRANCH   1   3
BRANCH   1  17
ATOM     17  C   UNL     1      22.322  30.244   8.608  1.00  0.00     0.111 A 
ATOM     18  C   UNL     1      21.298  30.116   7.662  1.00  0.00     0.043 A 
ATOM     19  C   UNL     1      23.639  30.459   8.167  1.00  0.00     0.094 A 
ATOM     20  C   UNL     1      21.582  30.135   6.295  1.00  0.00     0.004 A 
ATOM     21  C   UNL     1      23.914  30.468   6.788  1.00  0.00     0.017 A 
ATOM     22  C   UNL     1      22.891  30.302   5.858  1.00  0.00     0.001 A 
BRANCH  19  23
ATOM     23  C   UNL     1      24.766  30.613   9.148  1.00  0.00     0.419 C 
ATOM     24  F   UNL     1      24.723  31.812   9.790  1.00  0.00    -0.166 F 
ATOM     25  F   UNL     1      24.806  29.658  10.109  1.00  0.00    -0.166 F 
ATOM     26  F   UNL     1      25.984  30.581   8.528  1.00  0.00    -0.166 F 
ENDBRANCH  19  23
ENDBRANCH   1  17
TORSDOF 4
ENDMDL
