MODEL 1
REMARK VINA RESULT:    -5.694      0.000      0.000
REMARK INTER + INTRA:          -7.871
REMARK INTER:                  -6.693
REMARK INTRA:                  -1.178
REMARK UNBOUND:                -1.178
REMARK SMILES C[NH+]1CCC(=C(c2ccc(Cl)cc2)c2ccccn2)CC1
REMARK SMILES IDX 6 1 5 2 2 3 3 4 21 5 4 6 20 7 1 8 7 10 8 11 13 12 9 13 12 14
REMARK SMILES IDX 10 15 11 16 14 17 15 18 19 19 16 20 18 21 17 22
REMARK H PARENT 2 9
ROOT
ATOM      1  C   UNL     1      22.805  33.215   8.710  1.00  0.00     0.007 C 
ENDROOT
BRANCH   1   2
ATOM      2  C   UNL     1      22.463  32.837   9.972  1.00  0.00    -0.049 C 
ATOM      3  N   UNL     1      21.235  30.922  11.788  1.00  0.00    -0.337 N 
ATOM      4  C   UNL     1      22.616  30.668  11.202  1.00  0.00     0.266 C 
ATOM      5  C   UNL     1      20.384  31.806  10.879  1.00  0.00     0.266 C 
ATOM      6  C   UNL     1      23.327  31.995  10.899  1.00  0.00     0.093 C 
ATOM      7  C   UNL     1      21.118  33.120  10.624  1.00  0.00     0.093 C 
ATOM      8  C   UNL     1      20.530  29.641  12.126  1.00  0.00     0.332 C 
ATOM      9  H   UNL     1      21.368  31.436  12.668  1.00  0.00     0.347 HD
ENDBRANCH   1   2
BRANCH   1  10
ATOM     10  C   UNL     1      22.802  32.205   7.623  1.00  0.00    -0.016 A 
ATOM     11  C   UNL     1      23.971  31.969   6.886  1.00  0.00     0.010 A 
ATOM     12  C   UNL     1      21.646  31.462   7.339  1.00  0.00     0.010 A 
ATOM     13  C   UNL     1      23.979  31.015   5.866  1.00  0.00     0.021 A 
ATOM     14  C   UNL     1      21.657  30.509   6.317  1.00  0.00     0.021 A 
ATOM     15  C   UNL     1      22.822  30.292   5.584  1.00  0.00     0.041 A 
ATOM     16  Cl  UNL     1      22.831  29.122   4.323  1.00  0.00    -0.084 Cl
ENDBRANCH   1  10
BRANCH   1  17
ATOM     17  C   UNL     1      23.076  34.647   8.398  1.00  0.00     0.071 A 
ATOM     18  C   UNL     1      22.565  35.236   7.246  1.00  0.00     0.029 A 
ATOM     19  N   UNL     1      23.786  35.337   9.332  1.00  0.00    -0.256 NA
ATOM     20  C   UNL     1      22.800  36.592   7.031  1.00  0.00     0.004 A 
ATOM     21  C   UNL     1      23.985  36.655   9.095  1.00  0.00     0.111 A 
ATOM     22  C   UNL     1      23.522  37.317   7.971  1.00  0.00     0.020 A 
ENDBRANCH   1  17
TORSDOF 3
ENDMDL
MODEL 2
REMARK VINA RESULT:    -5.655      2.444      4.638
REMARK INTER + INTRA:          -7.825
REMARK INTER:                  -6.715
REMARK INTRA:                  -1.110
REMARK UNBOUND:                -1.178
REMARK SMILES C[NH+]1CCC(=C(c2ccc(Cl)cc2)c2ccccn2)CC1
REMARK SMILES IDX 6 1 5 2 2 3 3 4 21 5 4 6 20 7 1 8 7 10 8 11 13 12 9 13 12 14
REMARK SMILES IDX 10 15 11 16 14 17 15 18 19 19 16 20 18 21 17 22
REMARK H PARENT 2 9
ROOT
ATOM      1  C   UNL     1      22.551  33.199   8.738  1.00  0.00     0.007 C 
ENDROOT
BRANCH   1   2
ATOM      2  C   UNL     1      22.243  32.852  10.017  1.00  0.00    -0.049 C 
ATOM      3  N   UNL     1      21.207  30.915  11.926  1.00  0.00    -0.337 N 
ATOM      4  C   UNL     1      22.610  30.774  11.354  1.00  0.00     0.266 C 
ATOM      5  C   UNL     1      20.275  31.661  10.975  1.00  0.00     0.266 C 
ATOM      6  C   UNL     1      23.183  32.149  10.984  1.00  0.00     0.093 C 
ATOM      7  C   UNL     1      20.873  33.029  10.654  1.00  0.00     0.093 C 
ATOM      8  C   UNL     1      20.634  29.587  12.328  1.00  0.00     0.332 C 
ATOM      9  H   UNL     1      21.283  31.482  12.780  1.00  0.00     0.347 HD
ENDBRANCH   1   2
BRANCH   1  10
ATOM     10  C   UNL     1      22.880  34.613   8.428  1.00  0.00    -0.016 A 
ATOM     11  C   UNL     1      23.655  35.362   9.325  1.00  0.00     0.010 A 
ATOM     12  C   UNL     1      22.444  35.204   7.232  1.00  0.00     0.010 A 
ATOM     13  C   UNL     1      23.976  36.691   9.038  1.00  0.00     0.021 A 
ATOM     14  C   UNL     1      22.766  36.534   6.948  1.00  0.00     0.021 A 
ATOM     15  C   UNL     1      23.527  37.271   7.853  1.00  0.00     0.041 A 
ATOM     16  Cl  UNL     1      23.917  38.910   7.504  1.00  0.00    -0.084 Cl
ENDBRANCH   1  10
BRANCH   1  17
ATOM     17  C   UNL     1      22.662  32.157   7.678  1.00  0.00     0.071 A 
ATOM     18  C   UNL     1      21.547  31.437   7.262  1.00  0.00     0.029 A 
ATOM     19  N   UNL     1      23.891  32.012   7.112  1.00  0.00    -0.256 NA
ATOM     20  C   UNL     1      21.695  30.516   6.229  1.00  0.00     0.004 A 
ATOM     21  C   UNL     1      23.995  31.115   6.103  1.00  0.00     0.111 A 
ATOM     22  C   UNL     1      22.940  30.351   5.635  1.00  0.00     0.020 A 
ENDBRANCH   1  17
TORSDOF 3
ENDMDL
MODEL 3
REMARK VINA RESULT:    -5.505      2.675      4.846
REMARK INTER + INTRA:          -7.649
REMARK INTER:                  -6.613
REMARK INTRA:                  -1.036
REMARK UNBOUND:                -1.178
REMARK SMILES C[NH+]1CCC(=C(c2ccc(Cl)cc2)c2ccccn2)CC1
REMARK SMILES IDX 6 1 5 2 2 3 3 4 21 5 4 6 20 7 1 8 7 10 8 11 13 12 9 13 12 14
REMARK SMILES IDX 10 15 11 16 14 17 15 18 19 19 16 20 18 21 17 22
REMARK H PARENT 2 9
ROOT
ATOM      1  C   UNL     1      22.011  32.136   8.822  1.00  0.00     0.007 C 
ENDROOT
BRANCH   1   2
ATOM      2  C   UNL     1      21.219  31.696   9.838  1.00  0.00    -0.049 C 
ATOM      3  N   UNL     1      20.847  31.062  12.653  1.00  0.00    -0.337 N 
ATOM      4  C   UNL     1      20.835  32.504  12.170  1.00  0.00     0.266 C 
ATOM      5  C   UNL     1      21.682  30.163  11.746  1.00  0.00     0.266 C 
ATOM      6  C   UNL     1      20.349  32.583  10.716  1.00  0.00     0.093 C 
ATOM      7  C   UNL     1      21.150  30.255  10.317  1.00  0.00     0.093 C 
ATOM      8  C   UNL     1      21.286  30.958  14.085  1.00  0.00     0.332 C 
ATOM      9  H   UNL     1      19.879  30.718  12.609  1.00  0.00     0.347 HD
ENDBRANCH   1   2
BRANCH   1  10
ATOM     10  C   UNL     1      22.573  33.508   8.880  1.00  0.00    -0.016 A 
ATOM     11  C   UNL     1      23.455  33.858   9.912  1.00  0.00     0.010 A 
ATOM     12  C   UNL     1      22.251  34.456   7.897  1.00  0.00     0.010 A 
ATOM     13  C   UNL     1      23.994  35.145   9.971  1.00  0.00     0.021 A 
ATOM     14  C   UNL     1      22.792  35.743   7.958  1.00  0.00     0.021 A 
ATOM     15  C   UNL     1      23.658  36.082   8.995  1.00  0.00     0.041 A 
ATOM     16  Cl  UNL     1      24.318  37.668   9.072  1.00  0.00    -0.084 Cl
ENDBRANCH   1  10
BRANCH   1  17
ATOM     17  C   UNL     1      22.399  31.216   7.715  1.00  0.00     0.071 A 
ATOM     18  C   UNL     1      21.475  30.829   6.749  1.00  0.00     0.029 A 
ATOM     19  N   UNL     1      23.708  30.845   7.680  1.00  0.00    -0.256 NA
ATOM     20  C   UNL     1      21.905  30.015   5.705  1.00  0.00     0.004 A 
ATOM     21  C   UNL     1      24.092  30.062   6.644  1.00  0.00     0.111 A 
ATOM     22  C   UNL     1      23.237  29.623   5.647  1.00  0.00     0.020 A 
ENDBRANCH   1  17
TORSDOF 3
ENDMDL
MODEL 4
REMARK VINA RESULT:    -5.314      2.828      5.122
REMARK INTER + INTRA:          -7.424
REMARK INTER:                  -6.245
REMARK INTRA:                  -1.179
REMARK UNBOUND:                -1.178
REMARK SMILES C[NH+]1CCC(=C(c2ccc(Cl)cc2)c2ccccn2)CC1
REMARK SMILES IDX 6 1 5 2 2 3 3 4 21 5 4 6 20 7 1 8 7 10 8 11 13 12 9 13 12 14
REMARK SMILES IDX 10 15 11 16 14 17 15 18 19 19 16 20 18 21 17 22
REMARK H PARENT 2 9
ROOT
ATOM      1  C   UNL     1      22.354  32.259  10.638  1.00  0.00     0.007 C 
ENDROOT
BRANCH   1   2
ATOM      2  C   UNL     1      22.397  30.985  10.162  1.00  0.00    -0.049 C 
ATOM      3  N   UNL     1      22.289  29.121   7.930  1.00  0.00    -0.337 N 
ATOM      4  C   UNL     1      23.545  29.934   8.208  1.00  0.00     0.266 C 
ATOM      5  C   UNL     1      21.031  29.824   8.431  1.00  0.00     0.266 C 
ATOM      6  C   UNL     1      23.655  30.263   9.703  1.00  0.00     0.093 C 
ATOM      7  C   UNL     1      21.175  30.110   9.924  1.00  0.00     0.093 C 
ATOM      8  C   UNL     1      22.173  28.755   6.478  1.00  0.00     0.332 C 
ATOM      9  H   UNL     1      22.373  28.242   8.457  1.00  0.00     0.347 HD
ENDBRANCH   1   2
BRANCH   1  10
ATOM     10  C   UNL     1      22.621  33.389   9.715  1.00  0.00    -0.016 A 
ATOM     11  C   UNL     1      22.059  33.388   8.430  1.00  0.00     0.010 A 
ATOM     12  C   UNL     1      23.411  34.475  10.122  1.00  0.00     0.010 A 
ATOM     13  C   UNL     1      22.300  34.452   7.557  1.00  0.00     0.021 A 
ATOM     14  C   UNL     1      23.650  35.538   9.246  1.00  0.00     0.021 A 
ATOM     15  C   UNL     1      23.096  35.519   7.967  1.00  0.00     0.041 A 
ATOM     16  Cl  UNL     1      23.396  36.825   6.889  1.00  0.00    -0.084 Cl
ENDBRANCH   1  10
BRANCH   1  17
ATOM     17  C   UNL     1      21.939  32.526  12.045  1.00  0.00     0.071 A 
ATOM     18  C   UNL     1      22.729  32.114  13.114  1.00  0.00     0.029 A 
ATOM     19  N   UNL     1      20.793  33.243  12.202  1.00  0.00    -0.256 NA
ATOM     20  C   UNL     1      22.324  32.440  14.405  1.00  0.00     0.004 A 
ATOM     21  C   UNL     1      20.437  33.550  13.472  1.00  0.00     0.111 A 
ATOM     22  C   UNL     1      21.158  33.172  14.591  1.00  0.00     0.020 A 
ENDBRANCH   1  17
TORSDOF 3
ENDMDL
MODEL 5
REMARK VINA RESULT:    -5.082      2.669      4.542
REMARK INTER + INTRA:          -7.151
REMARK INTER:                  -6.021
REMARK INTRA:                  -1.130
REMARK UNBOUND:                -1.178
REMARK SMILES C[NH+]1CCC(=C(c2ccc(Cl)cc2)c2ccccn2)CC1
REMARK SMILES IDX 6 1 5 2 2 3 3 4 21 5 4 6 20 7 1 8 7 10 8 11 13 12 9 13 12 14
REMARK SMILES IDX 10 15 11 16 14 17 15 18 19 19 16 20 18 21 17 22
REMARK H PARENT 2 9
ROOT
ATOM      1  C   UNL     1      22.641  33.283   8.714  1.00  0.00     0.007 C 
ENDROOT
BRANCH   1   2
ATOM      2  C   UNL     1      22.695  32.466   7.628  1.00  0.00    -0.049 C 
ATOM      3  N   UNL     1      23.103  29.825   6.474  1.00  0.00    -0.337 N 
ATOM      4  C   UNL     1      21.796  30.181   7.168  1.00  0.00     0.266 C 
ATOM      5  C   UNL     1      24.275  30.640   7.013  1.00  0.00     0.266 C 
ATOM      6  C   UNL     1      21.519  31.686   7.059  1.00  0.00     0.093 C 
ATOM      7  C   UNL     1      23.966  32.128   6.863  1.00  0.00     0.093 C 
ATOM      8  C   UNL     1      23.382  28.352   6.535  1.00  0.00     0.332 C 
ATOM      9  H   UNL     1      22.996  30.071   5.481  1.00  0.00     0.347 HD
ENDBRANCH   1   2
BRANCH   1  10
ATOM     10  C   UNL     1      22.262  32.716  10.032  1.00  0.00    -0.016 A 
ATOM     11  C   UNL     1      23.161  31.888  10.720  1.00  0.00     0.010 A 
ATOM     12  C   UNL     1      21.021  33.019  10.613  1.00  0.00     0.010 A 
ATOM     13  C   UNL     1      22.816  31.355  11.965  1.00  0.00     0.021 A 
ATOM     14  C   UNL     1      20.678  32.484  11.857  1.00  0.00     0.021 A 
ATOM     15  C   UNL     1      21.576  31.653  12.525  1.00  0.00     0.041 A 
ATOM     16  Cl  UNL     1      21.149  30.992  14.055  1.00  0.00    -0.084 Cl
ENDBRANCH   1  10
BRANCH   1  17
ATOM     17  C   UNL     1      23.062  34.709   8.609  1.00  0.00     0.071 A 
ATOM     18  C   UNL     1      22.646  35.500   7.542  1.00  0.00     0.029 A 
ATOM     19  N   UNL     1      23.808  35.189   9.641  1.00  0.00    -0.256 NA
ATOM     20  C   UNL     1      23.019  36.841   7.522  1.00  0.00     0.004 A 
ATOM     21  C   UNL     1      24.143  36.500   9.592  1.00  0.00     0.111 A 
ATOM     22  C   UNL     1      23.781  37.354   8.565  1.00  0.00     0.020 A 
ENDBRANCH   1  17
TORSDOF 3
ENDMDL
MODEL 6
REMARK VINA RESULT:    -5.078      2.889      6.236
REMARK INTER + INTRA:          -7.147
REMARK INTER:                  -5.957
REMARK INTRA:                  -1.190
REMARK UNBOUND:                -1.178
REMARK SMILES C[NH+]1CCC(=C(c2ccc(Cl)cc2)c2ccccn2)CC1
REMARK SMILES IDX 6 1 5 2 2 3 3 4 21 5 4 6 20 7 1 8 7 10 8 11 13 12 9 13 12 14
REMARK SMILES IDX 10 15 11 16 14 17 15 18 19 19 16 20 18 21 17 22
REMARK H PARENT 2 9
ROOT
ATOM      1  C   UNL     1      22.578  32.378   8.328  1.00  0.00     0.007 C 
ENDROOT
BRANCH   1   2
ATOM      2  C   UNL     1      23.045  33.426   7.596  1.00  0.00    -0.049 C 
ATOM      3  N   UNL     1      24.446  35.972   7.444  1.00  0.00    -0.337 N 
ATOM      4  C   UNL     1      25.214  34.666   7.587  1.00  0.00     0.266 C 
ATOM      5  C   UNL     1      23.044  35.878   8.039  1.00  0.00     0.266 C 
ATOM      6  C   UNL     1      24.426  33.506   6.963  1.00  0.00     0.093 C 
ATOM      7  C   UNL     1      22.291  34.728   7.374  1.00  0.00     0.093 C 
ATOM      8  C   UNL     1      25.210  37.131   8.017  1.00  0.00     0.332 C 
ATOM      9  H   UNL     1      24.335  36.151   6.438  1.00  0.00     0.347 HD
ENDBRANCH   1   2
BRANCH   1  10
ATOM     10  C   UNL     1      22.118  32.611   9.719  1.00  0.00    -0.016 A 
ATOM     11  C   UNL     1      20.832  32.205  10.106  1.00  0.00     0.010 A 
ATOM     12  C   UNL     1      22.964  33.212  10.663  1.00  0.00     0.010 A 
ATOM     13  C   UNL     1      20.393  32.414  11.416  1.00  0.00     0.021 A 
ATOM     14  C   UNL     1      22.522  33.420  11.972  1.00  0.00     0.021 A 
ATOM     15  C   UNL     1      21.238  33.023  12.341  1.00  0.00     0.041 A 
ATOM     16  Cl  UNL     1      20.694  33.285  13.951  1.00  0.00    -0.084 Cl
ENDBRANCH   1  10
BRANCH   1  17
ATOM     17  C   UNL     1      22.428  31.031   7.708  1.00  0.00     0.071 A 
ATOM     18  C   UNL     1      21.670  30.855   6.555  1.00  0.00     0.029 A 
ATOM     19  N   UNL     1      23.126  30.022   8.298  1.00  0.00    -0.256 NA
ATOM     20  C   UNL     1      21.610  29.587   5.984  1.00  0.00     0.004 A 
ATOM     21  C   UNL     1      23.053  28.806   7.709  1.00  0.00     0.111 A 
ATOM     22  C   UNL     1      22.314  28.541   6.568  1.00  0.00     0.020 A 
ENDBRANCH   1  17
TORSDOF 3
ENDMDL
MODEL 7
REMARK VINA RESULT:    -4.743      2.754      5.546
REMARK INTER + INTRA:          -6.753
REMARK INTER:                  -5.624
REMARK INTRA:                  -1.129
REMARK UNBOUND:                -1.178
REMARK SMILES C[NH+]1CCC(=C(c2ccc(Cl)cc2)c2ccccn2)CC1
REMARK SMILES IDX 6 1 5 2 2 3 3 4 21 5 4 6 20 7 1 8 7 10 8 11 13 12 9 13 12 14
REMARK SMILES IDX 10 15 11 16 14 17 15 18 19 19 16 20 18 21 17 22
REMARK H PARENT 2 9
ROOT
ATOM      1  C   UNL     1      23.063  32.902   9.096  1.00  0.00     0.007 C 
ENDROOT
BRANCH   1   2
ATOM      2  C   UNL     1      23.640  31.920   8.352  1.00  0.00    -0.049 C 
ATOM      3  N   UNL     1      23.968  30.543   5.810  1.00  0.00    -0.337 N 
ATOM      4  C   UNL     1      24.646  31.880   6.066  1.00  0.00     0.266 C 
ATOM      5  C   UNL     1      22.695  30.380   6.636  1.00  0.00     0.266 C 
ATOM      6  C   UNL     1      24.932  32.062   7.563  1.00  0.00     0.093 C 
ATOM      7  C   UNL     1      23.031  30.546   8.117  1.00  0.00     0.093 C 
ATOM      8  C   UNL     1      23.707  30.323   4.348  1.00  0.00     0.332 C 
ATOM      9  H   UNL     1      24.620  29.808   6.114  1.00  0.00     0.347 HD
ENDBRANCH   1   2
BRANCH   1  10
ATOM     10  C   UNL     1      23.140  34.308   8.628  1.00  0.00    -0.016 A 
ATOM     11  C   UNL     1      23.843  35.258   9.383  1.00  0.00     0.010 A 
ATOM     12  C   UNL     1      22.537  34.696   7.422  1.00  0.00     0.010 A 
ATOM     13  C   UNL     1      23.927  36.582   8.946  1.00  0.00     0.021 A 
ATOM     14  C   UNL     1      22.622  36.021   6.988  1.00  0.00     0.021 A 
ATOM     15  C   UNL     1      23.313  36.958   7.753  1.00  0.00     0.041 A 
ATOM     16  Cl  UNL     1      23.412  38.590   7.219  1.00  0.00    -0.084 Cl
ENDBRANCH   1  10
BRANCH   1  17
ATOM     17  C   UNL     1      22.270  32.563  10.312  1.00  0.00     0.071 A 
ATOM     18  C   UNL     1      20.881  32.638  10.304  1.00  0.00     0.029 A 
ATOM     19  N   UNL     1      22.982  32.120  11.384  1.00  0.00    -0.256 NA
ATOM     20  C   UNL     1      20.186  32.255  11.447  1.00  0.00     0.004 A 
ATOM     21  C   UNL     1      22.273  31.746  12.474  1.00  0.00     0.111 A 
ATOM     22  C   UNL     1      20.891  31.799  12.554  1.00  0.00     0.020 A 
ENDBRANCH   1  17
TORSDOF 3
ENDMDL
MODEL 8
REMARK VINA RESULT:    -4.712      3.398      6.530
REMARK INTER + INTRA:          -6.717
REMARK INTER:                  -5.510
REMARK INTRA:                  -1.207
REMARK UNBOUND:                -1.178
REMARK SMILES C[NH+]1CCC(=C(c2ccc(Cl)cc2)c2ccccn2)CC1
REMARK SMILES IDX 6 1 5 2 2 3 3 4 21 5 4 6 20 7 1 8 7 10 8 11 13 12 9 13 12 14
REMARK SMILES IDX 10 15 11 16 14 17 15 18 19 19 16 20 18 21 17 22
REMARK H PARENT 2 9
ROOT
ATOM      1  C   UNL     1      22.556  32.518  10.146  1.00  0.00     0.007 C 
ENDROOT
BRANCH   1   2
ATOM      2  C   UNL     1      22.933  33.712   9.612  1.00  0.00    -0.049 C 
ATOM      3  N   UNL     1      24.520  35.237   7.710  1.00  0.00    -0.337 N 
ATOM      4  C   UNL     1      23.265  34.502   7.266  1.00  0.00     0.266 C 
ATOM      5  C   UNL     1      25.165  34.583   8.929  1.00  0.00     0.266 C 
ATOM      6  C   UNL     1      22.265  34.391   8.426  1.00  0.00     0.093 C 
ATOM      7  C   UNL     1      24.143  34.515  10.062  1.00  0.00     0.093 C 
ATOM      8  C   UNL     1      25.502  35.390   6.584  1.00  0.00     0.332 C 
ATOM      9  H   UNL     1      24.235  36.184   7.992  1.00  0.00     0.347 HD
ENDBRANCH   1   2
BRANCH   1  10
ATOM     10  C   UNL     1      22.186  32.447  11.581  1.00  0.00    -0.016 A 
ATOM     11  C   UNL     1      21.171  33.276  12.081  1.00  0.00     0.010 A 
ATOM     12  C   UNL     1      22.823  31.541  12.441  1.00  0.00     0.010 A 
ATOM     13  C   UNL     1      20.811  33.211  13.430  1.00  0.00     0.021 A 
ATOM     14  C   UNL     1      22.461  31.479  13.790  1.00  0.00     0.021 A 
ATOM     15  C   UNL     1      21.459  32.316  14.277  1.00  0.00     0.041 A 
ATOM     16  Cl  UNL     1      21.019  32.241  15.939  1.00  0.00    -0.084 Cl
ENDBRANCH   1  10
BRANCH   1  17
ATOM     17  C   UNL     1      22.412  31.314   9.277  1.00  0.00     0.071 A 
ATOM     18  C   UNL     1      21.210  30.616   9.217  1.00  0.00     0.029 A 
ATOM     19  N   UNL     1      23.494  30.996   8.515  1.00  0.00    -0.256 NA
ATOM     20  C   UNL     1      21.112  29.534   8.346  1.00  0.00     0.004 A 
ATOM     21  C   UNL     1      23.358  29.945   7.673  1.00  0.00     0.111 A 
ATOM     22  C   UNL     1      22.203  29.190   7.558  1.00  0.00     0.020 A 
ENDBRANCH   1  17
TORSDOF 3
ENDMDL
MODEL 9
REMARK VINA RESULT:    -4.280      1.152      4.824
REMARK INTER + INTRA:          -6.210
REMARK INTER:                  -5.021
REMARK INTRA:                  -1.188
REMARK UNBOUND:                -1.178
REMARK SMILES C[NH+]1CCC(=C(c2ccc(Cl)cc2)c2ccccn2)CC1
REMARK SMILES IDX 6 1 5 2 2 3 3 4 21 5 4 6 20 7 1 8 7 10 8 11 13 12 9 13 12 14
REMARK SMILES IDX 10 15 11 16 14 17 15 18 19 19 16 20 18 21 17 22
REMARK H PARENT 2 9
ROOT
ATOM      1  C   UNL     1      22.348  32.620   8.733  1.00  0.00     0.007 C 
ENDROOT
BRANCH   1   2
ATOM      2  C   UNL     1      22.735  33.925   8.729  1.00  0.00    -0.049 C 
ATOM      3  N   UNL     1      24.619  35.996   7.937  1.00  0.00    -0.337 N 
ATOM      4  C   UNL     1      23.610  35.438   6.945  1.00  0.00     0.266 C 
ATOM      5  C   UNL     1      24.971  34.984   9.024  1.00  0.00     0.266 C 
ATOM      6  C   UNL     1      22.350  34.949   7.673  1.00  0.00     0.093 C 
ATOM      7  C   UNL     1      23.692  34.544   9.735  1.00  0.00     0.093 C 
ATOM      8  C   UNL     1      25.848  36.514   7.249  1.00  0.00     0.332 C 
ATOM      9  H   UNL     1      24.175  36.797   8.405  1.00  0.00     0.347 HD
ENDBRANCH   1   2
BRANCH   1  10
ATOM     10  C   UNL     1      22.613  31.780   7.538  1.00  0.00    -0.016 A 
ATOM     11  C   UNL     1      23.910  31.708   7.009  1.00  0.00     0.010 A 
ATOM     12  C   UNL     1      21.583  31.035   6.943  1.00  0.00     0.010 A 
ATOM     13  C   UNL     1      24.169  30.915   5.888  1.00  0.00     0.021 A 
ATOM     14  C   UNL     1      21.846  30.243   5.822  1.00  0.00     0.021 A 
ATOM     15  C   UNL     1      23.136  30.189   5.299  1.00  0.00     0.041 A 
ATOM     16  Cl  UNL     1      23.456  29.218   3.916  1.00  0.00    -0.084 Cl
ENDBRANCH   1  10
BRANCH   1  17
ATOM     17  C   UNL     1      21.763  32.008   9.960  1.00  0.00     0.071 A 
ATOM     18  C   UNL     1      20.578  32.492  10.504  1.00  0.00     0.029 A 
ATOM     19  N   UNL     1      22.420  30.926  10.458  1.00  0.00    -0.256 NA
ATOM     20  C   UNL     1      20.044  31.848  11.617  1.00  0.00     0.004 A 
ATOM     21  C   UNL     1      21.867  30.319  11.534  1.00  0.00     0.111 A 
ATOM     22  C   UNL     1      20.697  30.740  12.143  1.00  0.00     0.020 A 
ENDBRANCH   1  17
TORSDOF 3
ENDMDL
