MODEL 1
REMARK VINA RESULT:    -5.305      0.000      0.000
REMARK INTER + INTRA:          -6.976
REMARK INTER:                  -6.236
REMARK INTRA:                  -0.740
REMARK UNBOUND:                -0.740
REMARK SMILES Cc1nc(NCc2ccccc2)c2ccnc-2[nH]1
REMARK SMILES IDX 5 1 4 3 18 4 2 5 17 6 3 7 16 8 13 9 15 10 14 11 1 13 6 14
REMARK SMILES IDX 7 15 8 16 12 17 9 18 11 19 10 20
REMARK H PARENT 5 2 18 12
ROOT
ATOM      1  N   UNL     1      20.119  30.244  11.412  1.00  0.00    -0.365 N 
ATOM      2  H   UNL     1      19.110  30.167  11.356  1.00  0.00     0.162 HD
ENDROOT
BRANCH   1   3
ATOM      3  C   UNL     1      20.744  30.569  10.216  1.00  0.00     0.139 A 
ATOM      4  N   UNL     1      21.967  31.148   7.831  1.00  0.00    -0.328 N 
ATOM      5  C   UNL     1      21.444  29.907   8.093  1.00  0.00     0.106 A 
ATOM      6  C   UNL     1      21.895  32.130   8.759  1.00  0.00     0.142 A 
ATOM      7  N   UNL     1      20.851  29.599   9.216  1.00  0.00    -0.218 NA
ATOM      8  N   UNL     1      22.320  33.364   8.725  1.00  0.00    -0.238 NA
ATOM      9  C   UNL     1      21.236  31.814  10.041  1.00  0.00     0.061 A 
ATOM     10  C   UNL     1      21.964  33.882   9.967  1.00  0.00     0.114 A 
ATOM     11  C   UNL     1      21.327  33.027  10.785  1.00  0.00     0.036 A 
ATOM     12  H   UNL     1      22.423  31.359   6.957  1.00  0.00     0.169 HD
ATOM     13  C   UNL     1      21.556  28.854   7.024  1.00  0.00     0.087 C 
ENDBRANCH   1   3
BRANCH   1  14
ATOM     14  C   UNL     1      20.736  29.421  12.430  1.00  0.00     0.150 C 
BRANCH  14  15
ATOM     15  C   UNL     1      21.429  30.308  13.436  1.00  0.00    -0.029 A 
ATOM     16  C   UNL     1      20.720  30.822  14.533  1.00  0.00     0.005 A 
ATOM     17  C   UNL     1      22.794  30.604  13.312  1.00  0.00     0.005 A 
ATOM     18  C   UNL     1      21.360  31.627  15.477  1.00  0.00     0.000 A 
ATOM     19  C   UNL     1      23.433  31.409  14.257  1.00  0.00     0.000 A 
ATOM     20  C   UNL     1      22.715  31.922  15.337  1.00  0.00     0.000 A 
ENDBRANCH  14  15
ENDBRANCH   1  14
TORSDOF 3
ENDMDL
MODEL 2
REMARK VINA RESULT:    -5.266      2.864      6.533
REMARK INTER + INTRA:          -6.930
REMARK INTER:                  -6.614
REMARK INTRA:                  -0.316
REMARK UNBOUND:                -0.740
REMARK SMILES Cc1nc(NCc2ccccc2)c2ccnc-2[nH]1
REMARK SMILES IDX 5 1 4 3 18 4 2 5 17 6 3 7 16 8 13 9 15 10 14 11 1 13 6 14
REMARK SMILES IDX 7 15 8 16 12 17 9 18 11 19 10 20
REMARK H PARENT 5 2 18 12
ROOT
ATOM      1  N   UNL     1      22.224  34.051   8.873  1.00  0.00    -0.365 N 
ATOM      2  H   UNL     1      21.553  34.592   8.340  1.00  0.00     0.162 HD
ENDROOT
BRANCH   1   3
ATOM      3  C   UNL     1      21.664  33.148   9.766  1.00  0.00     0.139 A 
ATOM      4  N   UNL     1      20.556  31.411  11.576  1.00  0.00    -0.328 N 
ATOM      5  C   UNL     1      20.826  32.717  11.898  1.00  0.00     0.106 A 
ATOM      6  C   UNL     1      20.838  30.940  10.339  1.00  0.00     0.142 A 
ATOM      7  N   UNL     1      21.349  33.572  11.059  1.00  0.00    -0.218 NA
ATOM      8  N   UNL     1      20.670  29.753   9.823  1.00  0.00    -0.238 NA
ATOM      9  C   UNL     1      21.434  31.878   9.369  1.00  0.00     0.061 A 
ATOM     10  C   UNL     1      21.150  29.874   8.523  1.00  0.00     0.114 A 
ATOM     11  C   UNL     1      21.612  31.092   8.192  1.00  0.00     0.036 A 
ATOM     12  H   UNL     1      20.155  30.771  12.243  1.00  0.00     0.169 HD
ATOM     13  C   UNL     1      20.493  33.184  13.290  1.00  0.00     0.087 C 
ENDBRANCH   1   3
BRANCH   1  14
ATOM     14  C   UNL     1      23.491  34.713   9.105  1.00  0.00     0.150 C 
BRANCH  14  15
ATOM     15  C   UNL     1      23.451  36.093   8.493  1.00  0.00    -0.029 A 
ATOM     16  C   UNL     1      24.095  37.167   9.127  1.00  0.00     0.005 A 
ATOM     17  C   UNL     1      22.805  36.315   7.269  1.00  0.00     0.005 A 
ATOM     18  C   UNL     1      24.079  38.439   8.555  1.00  0.00     0.000 A 
ATOM     19  C   UNL     1      22.789  37.590   6.698  1.00  0.00     0.000 A 
ATOM     20  C   UNL     1      23.424  38.651   7.342  1.00  0.00     0.000 A 
ENDBRANCH  14  15
ENDBRANCH   1  14
TORSDOF 3
ENDMDL
MODEL 3
REMARK VINA RESULT:    -5.237      2.612      5.784
REMARK INTER + INTRA:          -6.896
REMARK INTER:                  -6.574
REMARK INTRA:                  -0.322
REMARK UNBOUND:                -0.740
REMARK SMILES Cc1nc(NCc2ccccc2)c2ccnc-2[nH]1
REMARK SMILES IDX 5 1 4 3 18 4 2 5 17 6 3 7 16 8 13 9 15 10 14 11 1 13 6 14
REMARK SMILES IDX 7 15 8 16 12 17 9 18 11 19 10 20
REMARK H PARENT 5 2 18 12
ROOT
ATOM      1  N   UNL     1      22.251  33.661   8.528  1.00  0.00    -0.365 N 
ATOM      2  H   UNL     1      22.832  33.856   9.335  1.00  0.00     0.162 HD
ENDROOT
BRANCH   1   3
ATOM      3  C   UNL     1      21.847  32.339   8.408  1.00  0.00     0.139 A 
ATOM      4  N   UNL     1      21.065  29.728   8.109  1.00  0.00    -0.328 N 
ATOM      5  C   UNL     1      21.590  30.450   7.067  1.00  0.00     0.106 A 
ATOM      6  C   UNL     1      20.914  30.297   9.327  1.00  0.00     0.142 A 
ATOM      7  N   UNL     1      21.976  31.693   7.176  1.00  0.00    -0.218 NA
ATOM      8  N   UNL     1      20.443  29.806  10.442  1.00  0.00    -0.238 NA
ATOM      9  C   UNL     1      21.335  31.702   9.484  1.00  0.00     0.061 A 
ATOM     10  C   UNL     1      20.534  30.861  11.344  1.00  0.00     0.114 A 
ATOM     11  C   UNL     1      21.048  32.000  10.848  1.00  0.00     0.036 A 
ATOM     12  H   UNL     1      20.771  28.770   7.997  1.00  0.00     0.169 HD
ATOM     13  C   UNL     1      21.732  29.765   5.734  1.00  0.00     0.087 C 
ENDBRANCH   1   3
BRANCH   1  14
ATOM     14  C   UNL     1      22.486  34.524   7.388  1.00  0.00     0.150 C 
BRANCH  14  15
ATOM     15  C   UNL     1      23.034  35.846   7.870  1.00  0.00    -0.029 A 
ATOM     16  C   UNL     1      23.757  35.917   9.070  1.00  0.00     0.005 A 
ATOM     17  C   UNL     1      22.862  37.013   7.111  1.00  0.00     0.005 A 
ATOM     18  C   UNL     1      24.283  37.132   9.510  1.00  0.00     0.000 A 
ATOM     19  C   UNL     1      23.389  38.228   7.552  1.00  0.00     0.000 A 
ATOM     20  C   UNL     1      24.097  38.288   8.752  1.00  0.00     0.000 A 
ENDBRANCH  14  15
ENDBRANCH   1  14
TORSDOF 3
ENDMDL
MODEL 4
REMARK VINA RESULT:    -5.224      2.139      6.284
REMARK INTER + INTRA:          -6.880
REMARK INTER:                  -6.284
REMARK INTRA:                  -0.597
REMARK UNBOUND:                -0.740
REMARK SMILES Cc1nc(NCc2ccccc2)c2ccnc-2[nH]1
REMARK SMILES IDX 5 1 4 3 18 4 2 5 17 6 3 7 16 8 13 9 15 10 14 11 1 13 6 14
REMARK SMILES IDX 7 15 8 16 12 17 9 18 11 19 10 20
REMARK H PARENT 5 2 18 12
ROOT
ATOM      1  N   UNL     1      21.083  33.177   9.866  1.00  0.00    -0.365 N 
ATOM      2  H   UNL     1      20.200  33.565   9.556  1.00  0.00     0.162 HD
ENDROOT
BRANCH   1   3
ATOM      3  C   UNL     1      21.140  32.869  11.218  1.00  0.00     0.139 A 
ATOM      4  N   UNL     1      21.267  32.322  13.902  1.00  0.00    -0.328 N 
ATOM      5  C   UNL     1      21.504  33.580  13.407  1.00  0.00     0.106 A 
ATOM      6  C   UNL     1      20.965  31.304  13.063  1.00  0.00     0.142 A 
ATOM      7  N   UNL     1      21.447  33.876  12.136  1.00  0.00    -0.218 NA
ATOM      8  N   UNL     1      20.709  30.048  13.310  1.00  0.00    -0.238 NA
ATOM      9  C   UNL     1      20.898  31.603  11.620  1.00  0.00     0.061 A 
ATOM     10  C   UNL     1      20.477  29.494  12.055  1.00  0.00     0.114 A 
ATOM     11  C   UNL     1      20.572  30.350  11.023  1.00  0.00     0.036 A 
ATOM     12  H   UNL     1      21.321  32.120  14.888  1.00  0.00     0.169 HD
ATOM     13  C   UNL     1      21.837  34.672  14.388  1.00  0.00     0.087 C 
ENDBRANCH   1   3
BRANCH   1  14
ATOM     14  C   UNL     1      22.237  33.605   9.102  1.00  0.00     0.150 C 
BRANCH  14  15
ATOM     15  C   UNL     1      22.506  32.603   8.005  1.00  0.00    -0.029 A 
ATOM     16  C   UNL     1      23.752  32.579   7.358  1.00  0.00     0.005 A 
ATOM     17  C   UNL     1      21.534  31.661   7.640  1.00  0.00     0.005 A 
ATOM     18  C   UNL     1      24.013  31.643   6.357  1.00  0.00     0.000 A 
ATOM     19  C   UNL     1      21.797  30.724   6.638  1.00  0.00     0.000 A 
ATOM     20  C   UNL     1      23.035  30.717   5.996  1.00  0.00     0.000 A 
ENDBRANCH  14  15
ENDBRANCH   1  14
TORSDOF 3
ENDMDL
MODEL 5
REMARK VINA RESULT:    -5.006      2.696      5.970
REMARK INTER + INTRA:          -6.624
REMARK INTER:                  -6.162
REMARK INTRA:                  -0.462
REMARK UNBOUND:                -0.740
REMARK SMILES Cc1nc(NCc2ccccc2)c2ccnc-2[nH]1
REMARK SMILES IDX 5 1 4 3 18 4 2 5 17 6 3 7 16 8 13 9 15 10 14 11 1 13 6 14
REMARK SMILES IDX 7 15 8 16 12 17 9 18 11 19 10 20
REMARK H PARENT 5 2 18 12
ROOT
ATOM      1  N   UNL     1      21.685  30.930  12.582  1.00  0.00    -0.365 N 
ATOM      2  H   UNL     1      22.223  30.072  12.537  1.00  0.00     0.162 HD
ENDROOT
BRANCH   1   3
ATOM      3  C   UNL     1      21.747  31.591  13.800  1.00  0.00     0.139 A 
ATOM      4  N   UNL     1      21.866  32.841  16.238  1.00  0.00    -0.328 N 
ATOM      5  C   UNL     1      21.759  31.477  16.128  1.00  0.00     0.106 A 
ATOM      6  C   UNL     1      21.912  33.614  15.128  1.00  0.00     0.142 A 
ATOM      7  N   UNL     1      21.704  30.850  14.983  1.00  0.00    -0.218 NA
ATOM      8  N   UNL     1      22.010  34.910  14.999  1.00  0.00    -0.238 NA
ATOM      9  C   UNL     1      21.848  32.938  13.819  1.00  0.00     0.061 A 
ATOM     10  C   UNL     1      22.005  35.117  13.624  1.00  0.00     0.114 A 
ATOM     11  C   UNL     1      21.912  34.005  12.875  1.00  0.00     0.036 A 
ATOM     12  H   UNL     1      21.903  33.301  17.134  1.00  0.00     0.169 HD
ATOM     13  C   UNL     1      21.709  30.669  17.397  1.00  0.00     0.087 C 
ENDBRANCH   1   3
BRANCH   1  14
ATOM     14  C   UNL     1      20.521  30.963  11.721  1.00  0.00     0.150 C 
BRANCH  14  15
ATOM     15  C   UNL     1      20.969  31.023  10.280  1.00  0.00    -0.029 A 
ATOM     16  C   UNL     1      20.934  29.871   9.479  1.00  0.00     0.005 A 
ATOM     17  C   UNL     1      21.391  32.232   9.711  1.00  0.00     0.005 A 
ATOM     18  C   UNL     1      21.328  29.925   8.142  1.00  0.00     0.000 A 
ATOM     19  C   UNL     1      21.786  32.285   8.372  1.00  0.00     0.000 A 
ATOM     20  C   UNL     1      21.756  31.131   7.589  1.00  0.00     0.000 A 
ENDBRANCH  14  15
ENDBRANCH   1  14
TORSDOF 3
ENDMDL
MODEL 6
REMARK VINA RESULT:    -4.955      2.790      6.345
REMARK INTER + INTRA:          -6.564
REMARK INTER:                  -6.297
REMARK INTRA:                  -0.266
REMARK UNBOUND:                -0.740
REMARK SMILES Cc1nc(NCc2ccccc2)c2ccnc-2[nH]1
REMARK SMILES IDX 5 1 4 3 18 4 2 5 17 6 3 7 16 8 13 9 15 10 14 11 1 13 6 14
REMARK SMILES IDX 7 15 8 16 12 17 9 18 11 19 10 20
REMARK H PARENT 5 2 18 12
ROOT
ATOM      1  N   UNL     1      21.988  32.012  11.847  1.00  0.00    -0.365 N 
ATOM      2  H   UNL     1      22.845  31.471  11.825  1.00  0.00     0.162 HD
ENDROOT
BRANCH   1   3
ATOM      3  C   UNL     1      21.862  32.855  12.942  1.00  0.00     0.139 A 
ATOM      4  N   UNL     1      21.631  34.573  15.067  1.00  0.00    -0.328 N 
ATOM      5  C   UNL     1      22.005  35.009  13.820  1.00  0.00     0.106 A 
ATOM      6  C   UNL     1      21.367  33.263  15.281  1.00  0.00     0.142 A 
ATOM      7  N   UNL     1      22.120  34.220  12.786  1.00  0.00    -0.218 NA
ATOM      8  N   UNL     1      21.002  32.637  16.367  1.00  0.00    -0.238 NA
ATOM      9  C   UNL     1      21.493  32.343  14.135  1.00  0.00     0.061 A 
ATOM     10  C   UNL     1      20.888  31.308  15.972  1.00  0.00     0.114 A 
ATOM     11  C   UNL     1      21.161  31.067  14.679  1.00  0.00     0.036 A 
ATOM     12  H   UNL     1      21.552  35.204  15.849  1.00  0.00     0.169 HD
ATOM     13  C   UNL     1      22.288  36.477  13.643  1.00  0.00     0.087 C 
ENDBRANCH   1   3
BRANCH   1  14
ATOM     14  C   UNL     1      20.857  31.386  11.195  1.00  0.00     0.150 C 
BRANCH  14  15
ATOM     15  C   UNL     1      21.172  31.191   9.731  1.00  0.00    -0.029 A 
ATOM     16  C   UNL     1      21.628  32.268   8.955  1.00  0.00     0.005 A 
ATOM     17  C   UNL     1      21.049  29.928   9.133  1.00  0.00     0.005 A 
ATOM     18  C   UNL     1      21.939  32.089   7.607  1.00  0.00     0.000 A 
ATOM     19  C   UNL     1      21.361  29.751   7.783  1.00  0.00     0.000 A 
ATOM     20  C   UNL     1      21.803  30.831   7.021  1.00  0.00     0.000 A 
ENDBRANCH  14  15
ENDBRANCH   1  14
TORSDOF 3
ENDMDL
MODEL 7
REMARK VINA RESULT:    -4.866      2.439      6.187
REMARK INTER + INTRA:          -6.460
REMARK INTER:                  -5.856
REMARK INTRA:                  -0.604
REMARK UNBOUND:                -0.740
REMARK SMILES Cc1nc(NCc2ccccc2)c2ccnc-2[nH]1
REMARK SMILES IDX 5 1 4 3 18 4 2 5 17 6 3 7 16 8 13 9 15 10 14 11 1 13 6 14
REMARK SMILES IDX 7 15 8 16 12 17 9 18 11 19 10 20
REMARK H PARENT 5 2 18 12
ROOT
ATOM      1  N   UNL     1      20.918  32.853  12.225  1.00  0.00    -0.365 N 
ATOM      2  H   UNL     1      21.580  33.395  11.683  1.00  0.00     0.162 HD
ENDROOT
BRANCH   1   3
ATOM      3  C   UNL     1      21.322  32.569  13.521  1.00  0.00     0.139 A 
ATOM      4  N   UNL     1      22.077  32.054  16.107  1.00  0.00    -0.328 N 
ATOM      5  C   UNL     1      21.114  32.985  15.806  1.00  0.00     0.106 A 
ATOM      6  C   UNL     1      22.690  31.361  15.119  1.00  0.00     0.142 A 
ATOM      7  N   UNL     1      20.728  33.251  14.586  1.00  0.00    -0.218 NA
ATOM      8  N   UNL     1      23.619  30.445  15.174  1.00  0.00    -0.238 NA
ATOM      9  C   UNL     1      22.280  31.641  13.730  1.00  0.00     0.061 A 
ATOM     10  C   UNL     1      23.846  30.110  13.843  1.00  0.00     0.114 A 
ATOM     11  C   UNL     1      23.096  30.773  12.947  1.00  0.00     0.036 A 
ATOM     12  H   UNL     1      22.359  31.870  17.057  1.00  0.00     0.169 HD
ATOM     13  C   UNL     1      20.470  33.727  16.946  1.00  0.00     0.087 C 
ENDBRANCH   1   3
BRANCH   1  14
ATOM     14  C   UNL     1      20.075  31.968  11.446  1.00  0.00     0.150 C 
BRANCH  14  15
ATOM     15  C   UNL     1      20.825  31.526  10.212  1.00  0.00    -0.029 A 
ATOM     16  C   UNL     1      20.838  30.173   9.839  1.00  0.00     0.005 A 
ATOM     17  C   UNL     1      21.487  32.460   9.402  1.00  0.00     0.005 A 
ATOM     18  C   UNL     1      21.512  29.761   8.689  1.00  0.00     0.000 A 
ATOM     19  C   UNL     1      22.161  32.046   8.251  1.00  0.00     0.000 A 
ATOM     20  C   UNL     1      22.175  30.698   7.897  1.00  0.00     0.000 A 
ENDBRANCH  14  15
ENDBRANCH   1  14
TORSDOF 3
ENDMDL
MODEL 8
REMARK VINA RESULT:    -4.693      2.303      6.258
REMARK INTER + INTRA:          -6.257
REMARK INTER:                  -5.739
REMARK INTRA:                  -0.518
REMARK UNBOUND:                -0.740
REMARK SMILES Cc1nc(NCc2ccccc2)c2ccnc-2[nH]1
REMARK SMILES IDX 5 1 4 3 18 4 2 5 17 6 3 7 16 8 13 9 15 10 14 11 1 13 6 14
REMARK SMILES IDX 7 15 8 16 12 17 9 18 11 19 10 20
REMARK H PARENT 5 2 18 12
ROOT
ATOM      1  N   UNL     1      22.008  33.839  11.754  1.00  0.00    -0.365 N 
ATOM      2  H   UNL     1      21.535  34.712  11.955  1.00  0.00     0.162 HD
ENDROOT
BRANCH   1   3
ATOM      3  C   UNL     1      21.666  32.787  12.592  1.00  0.00     0.139 A 
ATOM      4  N   UNL     1      21.008  30.745  14.300  1.00  0.00    -0.328 N 
ATOM      5  C   UNL     1      21.478  31.950  14.759  1.00  0.00     0.106 A 
ATOM      6  C   UNL     1      20.860  30.531  12.972  1.00  0.00     0.142 A 
ATOM      7  N   UNL     1      21.797  32.945  13.974  1.00  0.00    -0.218 NA
ATOM      8  N   UNL     1      20.438  29.480  12.324  1.00  0.00    -0.238 NA
ATOM      9  C   UNL     1      21.215  31.632  12.057  1.00  0.00     0.061 A 
ATOM     10  C   UNL     1      20.511  29.853  10.985  1.00  0.00     0.114 A 
ATOM     11  C   UNL     1      20.958  31.100  10.760  1.00  0.00     0.036 A 
ATOM     12  H   UNL     1      20.772  29.993  14.928  1.00  0.00     0.169 HD
ATOM     13  C   UNL     1      21.625  32.130  16.247  1.00  0.00     0.087 C 
ENDBRANCH   1   3
BRANCH   1  14
ATOM     14  C   UNL     1      23.318  33.981  11.154  1.00  0.00     0.150 C 
BRANCH  14  15
ATOM     15  C   UNL     1      23.178  34.634   9.800  1.00  0.00    -0.029 A 
ATOM     16  C   UNL     1      23.840  35.841   9.524  1.00  0.00     0.005 A 
ATOM     17  C   UNL     1      22.417  34.031   8.789  1.00  0.00     0.005 A 
ATOM     18  C   UNL     1      23.730  36.438   8.268  1.00  0.00     0.000 A 
ATOM     19  C   UNL     1      22.307  34.630   7.532  1.00  0.00     0.000 A 
ATOM     20  C   UNL     1      22.961  35.834   7.273  1.00  0.00     0.000 A 
ENDBRANCH  14  15
ENDBRANCH   1  14
TORSDOF 3
ENDMDL
MODEL 9
REMARK VINA RESULT:    -4.541      9.248     11.778
REMARK INTER + INTRA:          -6.077
REMARK INTER:                  -5.441
REMARK INTRA:                  -0.636
REMARK UNBOUND:                -0.740
REMARK SMILES Cc1nc(NCc2ccccc2)c2ccnc-2[nH]1
REMARK SMILES IDX 5 1 4 3 18 4 2 5 17 6 3 7 16 8 13 9 15 10 14 11 1 13 6 14
REMARK SMILES IDX 7 15 8 16 12 17 9 18 11 19 10 20
REMARK H PARENT 5 2 18 12
ROOT
ATOM      1  N   UNL     1      22.470  42.736   9.445  1.00  0.00    -0.365 N 
ATOM      2  H   UNL     1      23.210  42.516  10.101  1.00  0.00     0.162 HD
ENDROOT
BRANCH   1   3
ATOM      3  C   UNL     1      21.225  42.939  10.021  1.00  0.00     0.139 A 
ATOM      4  N   UNL     1      18.746  43.378  11.110  1.00  0.00    -0.328 N 
ATOM      5  C   UNL     1      19.133  43.963   9.930  1.00  0.00     0.106 A 
ATOM      6  C   UNL     1      19.594  42.561  11.777  1.00  0.00     0.142 A 
ATOM      7  N   UNL     1      20.303  43.772   9.382  1.00  0.00    -0.218 NA
ATOM      8  N   UNL     1      19.439  41.910  12.898  1.00  0.00    -0.238 NA
ATOM      9  C   UNL     1      20.926  42.328  11.188  1.00  0.00     0.061 A 
ATOM     10  C   UNL     1      20.649  41.247  13.076  1.00  0.00     0.114 A 
ATOM     11  C   UNL     1      21.563  41.449  12.112  1.00  0.00     0.036 A 
ATOM     12  H   UNL     1      17.837  43.545  11.513  1.00  0.00     0.169 HD
ATOM     13  C   UNL     1      18.149  44.865   9.234  1.00  0.00     0.087 C 
ENDBRANCH   1   3
BRANCH   1  14
ATOM     14  C   UNL     1      22.650  42.183   8.118  1.00  0.00     0.150 C 
BRANCH  14  15
ATOM     15  C   UNL     1      23.039  40.729   8.234  1.00  0.00    -0.029 A 
ATOM     16  C   UNL     1      22.636  39.809   7.254  1.00  0.00     0.005 A 
ATOM     17  C   UNL     1      23.837  40.283   9.297  1.00  0.00     0.005 A 
ATOM     18  C   UNL     1      23.010  38.467   7.345  1.00  0.00     0.000 A 
ATOM     19  C   UNL     1      24.210  38.940   9.386  1.00  0.00     0.000 A 
ATOM     20  C   UNL     1      23.795  38.033   8.412  1.00  0.00     0.000 A 
ENDBRANCH  14  15
ENDBRANCH   1  14
TORSDOF 3
ENDMDL
