MODEL 1
REMARK VINA RESULT:    -4.900      0.000      0.000
REMARK INTER + INTRA:          -6.122
REMARK INTER:                  -5.903
REMARK INTRA:                  -0.219
REMARK UNBOUND:                -0.219
REMARK SMILES NC(=[NH2+])NN=Cc1c(Cl)cccc1Cl
REMARK SMILES IDX 5 1 4 2 2 3 1 4 3 8 6 11 7 12 8 13 13 14 10 15 12 16 11 17
REMARK SMILES IDX 9 18 14 19
REMARK H PARENT 4 5 1 6 1 7 3 9 3 10
ROOT
ATOM      1  N   UNL     1      20.726  33.272  11.463  1.00  0.00    -0.121 NA
ENDROOT
BRANCH   1   2
ATOM      2  N   UNL     1      20.485  32.852  12.736  1.00  0.00    -0.157 N 
ATOM      3  C   UNL     1      20.800  33.705  13.754  1.00  0.00     0.362 C 
ATOM      4  N   UNL     1      20.614  33.349  15.029  1.00  0.00    -0.289 N 
ATOM      5  H   UNL     1      20.086  31.944  12.960  1.00  0.00     0.295 HD
ATOM      6  H   UNL     1      20.241  32.443  15.282  1.00  0.00     0.256 HD
ATOM      7  H   UNL     1      20.847  33.983  15.783  1.00  0.00     0.256 HD
BRANCH   3   8
ATOM      8  N   UNL     1      21.301  34.912  13.476  1.00  0.00    -0.289 N 
ATOM      9  H   UNL     1      21.528  35.093  12.501  1.00  0.00     0.256 HD
ATOM     10  H   UNL     1      21.447  35.637  14.160  1.00  0.00     0.256 HD
ENDBRANCH   3   8
ENDBRANCH   1   2
BRANCH   1  11
ATOM     11  C   UNL     1      21.731  32.707  10.869  1.00  0.00     0.161 C 
BRANCH  11  12
ATOM     12  C   UNL     1      21.580  31.840   9.675  1.00  0.00     0.033 A 
ATOM     13  C   UNL     1      21.919  32.364   8.414  1.00  0.00     0.051 A 
ATOM     14  C   UNL     1      21.120  30.513   9.753  1.00  0.00     0.051 A 
ATOM     15  C   UNL     1      21.793  31.581   7.261  1.00  0.00     0.021 A 
ATOM     16  C   UNL     1      20.997  29.740   8.591  1.00  0.00     0.021 A 
ATOM     17  C   UNL     1      21.332  30.272   7.349  1.00  0.00     0.003 A 
ATOM     18  Cl  UNL     1      22.468  33.990   8.192  1.00  0.00    -0.084 Cl
ATOM     19  Cl  UNL     1      20.721  29.718  11.239  1.00  0.00    -0.084 Cl
ENDBRANCH  11  12
ENDBRANCH   1  11
TORSDOF 4
ENDMDL
MODEL 2
REMARK VINA RESULT:    -4.892      0.068      2.457
REMARK INTER + INTRA:          -6.112
REMARK INTER:                  -5.886
REMARK INTRA:                  -0.226
REMARK UNBOUND:                -0.219
REMARK SMILES NC(=[NH2+])NN=Cc1c(Cl)cccc1Cl
REMARK SMILES IDX 5 1 4 2 2 3 1 4 3 8 6 11 7 12 8 13 13 14 10 15 12 16 11 17
REMARK SMILES IDX 9 18 14 19
REMARK H PARENT 4 5 1 6 1 7 3 9 3 10
ROOT
ATOM      1  N   UNL     1      20.780  33.272  11.491  1.00  0.00    -0.121 NA
ENDROOT
BRANCH   1   2
ATOM      2  N   UNL     1      20.467  32.879  12.757  1.00  0.00    -0.157 N 
ATOM      3  C   UNL     1      20.769  33.734  13.778  1.00  0.00     0.362 C 
ATOM      4  N   UNL     1      20.513  33.403  15.047  1.00  0.00    -0.289 N 
ATOM      5  H   UNL     1      20.024  31.990  12.974  1.00  0.00     0.295 HD
ATOM      6  H   UNL     1      20.095  32.515  15.294  1.00  0.00     0.256 HD
ATOM      7  H   UNL     1      20.736  34.038  15.803  1.00  0.00     0.256 HD
BRANCH   3   8
ATOM      8  N   UNL     1      21.328  34.917  13.507  1.00  0.00    -0.289 N 
ATOM      9  H   UNL     1      20.691  35.669  13.253  1.00  0.00     0.256 HD
ATOM     10  H   UNL     1      22.317  35.101  13.554  1.00  0.00     0.256 HD
ENDBRANCH   3   8
ENDBRANCH   1   2
BRANCH   1  11
ATOM     11  C   UNL     1      21.768  32.639  10.937  1.00  0.00     0.161 C 
BRANCH  11  12
ATOM     12  C   UNL     1      21.628  31.865   9.680  1.00  0.00     0.033 A 
ATOM     13  C   UNL     1      21.178  30.533   9.754  1.00  0.00     0.051 A 
ATOM     14  C   UNL     1      21.919  32.409   8.416  1.00  0.00     0.051 A 
ATOM     15  C   UNL     1      21.030  29.766   8.594  1.00  0.00     0.021 A 
ATOM     16  C   UNL     1      21.767  31.630   7.261  1.00  0.00     0.021 A 
ATOM     17  C   UNL     1      21.325  30.313   7.349  1.00  0.00     0.003 A 
ATOM     18  Cl  UNL     1      20.818  29.749  11.255  1.00  0.00    -0.084 Cl
ATOM     19  Cl  UNL     1      22.425  34.046   8.166  1.00  0.00    -0.084 Cl
ENDBRANCH  11  12
ENDBRANCH   1  11
TORSDOF 4
ENDMDL
MODEL 3
REMARK VINA RESULT:    -4.786      2.513      3.100
REMARK INTER + INTRA:          -5.984
REMARK INTER:                  -5.657
REMARK INTRA:                  -0.327
REMARK UNBOUND:                -0.219
REMARK SMILES NC(=[NH2+])NN=Cc1c(Cl)cccc1Cl
REMARK SMILES IDX 5 1 4 2 2 3 1 4 3 8 6 11 7 12 8 13 13 14 10 15 12 16 11 17
REMARK SMILES IDX 9 18 14 19
REMARK H PARENT 4 5 1 6 1 7 3 9 3 10
ROOT
ATOM      1  N   UNL     1      21.142  29.787  11.985  1.00  0.00    -0.121 NA
ENDROOT
BRANCH   1   2
ATOM      2  N   UNL     1      20.534  29.884  13.201  1.00  0.00    -0.157 N 
ATOM      3  C   UNL     1      21.198  30.552  14.189  1.00  0.00     0.362 C 
ATOM      4  N   UNL     1      20.672  30.664  15.413  1.00  0.00    -0.289 N 
ATOM      5  H   UNL     1      19.621  29.486  13.403  1.00  0.00     0.295 HD
ATOM      6  H   UNL     1      19.776  30.258  15.649  1.00  0.00     0.256 HD
ATOM      7  H   UNL     1      21.164  31.161  16.144  1.00  0.00     0.256 HD
BRANCH   3   8
ATOM      8  N   UNL     1      22.387  31.103  13.932  1.00  0.00    -0.289 N 
ATOM      9  H   UNL     1      22.435  32.118  13.979  1.00  0.00     0.256 HD
ATOM     10  H   UNL     1      23.220  30.579  13.713  1.00  0.00     0.256 HD
ENDBRANCH   3   8
ENDBRANCH   1   2
BRANCH   1  11
ATOM     11  C   UNL     1      20.497  30.321  10.994  1.00  0.00     0.161 C 
BRANCH  11  12
ATOM     12  C   UNL     1      21.103  31.324  10.084  1.00  0.00     0.033 A 
ATOM     13  C   UNL     1      21.484  30.916   8.791  1.00  0.00     0.051 A 
ATOM     14  C   UNL     1      21.306  32.664  10.456  1.00  0.00     0.051 A 
ATOM     15  C   UNL     1      22.059  31.828   7.899  1.00  0.00     0.021 A 
ATOM     16  C   UNL     1      21.883  33.568   9.553  1.00  0.00     0.021 A 
ATOM     17  C   UNL     1      22.259  33.151   8.279  1.00  0.00     0.003 A 
ATOM     18  Cl  UNL     1      21.311  29.287   8.234  1.00  0.00    -0.084 Cl
ATOM     19  Cl  UNL     1      20.835  33.320  11.988  1.00  0.00    -0.084 Cl
ENDBRANCH  11  12
ENDBRANCH   1  11
TORSDOF 4
ENDMDL
MODEL 4
REMARK VINA RESULT:    -4.696      3.595      5.511
REMARK INTER + INTRA:          -5.875
REMARK INTER:                  -5.669
REMARK INTRA:                  -0.206
REMARK UNBOUND:                -0.219
REMARK SMILES NC(=[NH2+])NN=Cc1c(Cl)cccc1Cl
REMARK SMILES IDX 5 1 4 2 2 3 1 4 3 8 6 11 7 12 8 13 13 14 10 15 12 16 11 17
REMARK SMILES IDX 9 18 14 19
REMARK H PARENT 4 5 1 6 1 7 3 9 3 10
ROOT
ATOM      1  N   UNL     1      20.765  29.620   8.485  1.00  0.00    -0.121 NA
ENDROOT
BRANCH   1   2
ATOM      2  N   UNL     1      21.128  28.724   7.525  1.00  0.00    -0.157 N 
ATOM      3  C   UNL     1      21.248  29.181   6.245  1.00  0.00     0.362 C 
ATOM      4  N   UNL     1      21.576  28.352   5.249  1.00  0.00    -0.289 N 
ATOM      5  H   UNL     1      21.311  27.743   7.717  1.00  0.00     0.295 HD
ATOM      6  H   UNL     1      21.740  27.366   5.406  1.00  0.00     0.256 HD
ATOM      7  H   UNL     1      21.666  28.692   4.300  1.00  0.00     0.256 HD
BRANCH   3   8
ATOM      8  N   UNL     1      21.037  30.474   5.981  1.00  0.00    -0.289 N 
ATOM      9  H   UNL     1      21.385  30.815   5.088  1.00  0.00     0.256 HD
ATOM     10  H   UNL     1      20.551  31.106   6.597  1.00  0.00     0.256 HD
ENDBRANCH   3   8
ENDBRANCH   1   2
BRANCH   1  11
ATOM     11  C   UNL     1      21.719  30.014   9.271  1.00  0.00     0.161 C 
BRANCH  11  12
ATOM     12  C   UNL     1      21.573  31.153  10.210  1.00  0.00     0.033 A 
ATOM     13  C   UNL     1      21.942  32.439   9.771  1.00  0.00     0.051 A 
ATOM     14  C   UNL     1      21.074  31.003  11.516  1.00  0.00     0.051 A 
ATOM     15  C   UNL     1      21.821  33.543  10.623  1.00  0.00     0.021 A 
ATOM     16  C   UNL     1      20.958  32.116  12.359  1.00  0.00     0.021 A 
ATOM     17  C   UNL     1      21.330  33.382  11.914  1.00  0.00     0.003 A 
ATOM     18  Cl  UNL     1      22.595  32.740   8.197  1.00  0.00    -0.084 Cl
ATOM     19  Cl  UNL     1      20.529  29.496  12.171  1.00  0.00    -0.084 Cl
ENDBRANCH  11  12
ENDBRANCH   1  11
TORSDOF 4
ENDMDL
MODEL 5
REMARK VINA RESULT:    -4.597      3.884      5.842
REMARK INTER + INTRA:          -5.757
REMARK INTER:                  -5.334
REMARK INTRA:                  -0.423
REMARK UNBOUND:                -0.219
REMARK SMILES NC(=[NH2+])NN=Cc1c(Cl)cccc1Cl
REMARK SMILES IDX 5 1 4 2 2 3 1 4 3 8 6 11 7 12 8 13 13 14 10 15 12 16 11 17
REMARK SMILES IDX 9 18 14 19
REMARK H PARENT 4 5 1 6 1 7 3 9 3 10
ROOT
ATOM      1  N   UNL     1      20.789  29.505   8.292  1.00  0.00    -0.121 NA
ENDROOT
BRANCH   1   2
ATOM      2  N   UNL     1      21.369  28.677   7.378  1.00  0.00    -0.157 N 
ATOM      3  C   UNL     1      21.502  29.138   6.100  1.00  0.00     0.362 C 
ATOM      4  N   UNL     1      22.040  28.371   5.147  1.00  0.00    -0.289 N 
ATOM      5  H   UNL     1      21.705  27.744   7.602  1.00  0.00     0.295 HD
ATOM      6  H   UNL     1      22.360  27.430   5.336  1.00  0.00     0.256 HD
ATOM      7  H   UNL     1      22.138  28.714   4.201  1.00  0.00     0.256 HD
BRANCH   3   8
ATOM      8  N   UNL     1      21.090  30.372   5.796  1.00  0.00    -0.289 N 
ATOM      9  H   UNL     1      20.963  31.011   6.577  1.00  0.00     0.256 HD
ATOM     10  H   UNL     1      20.918  30.698   4.858  1.00  0.00     0.256 HD
ENDBRANCH   3   8
ENDBRANCH   1   2
BRANCH   1  11
ATOM     11  C   UNL     1      21.563  29.910   9.250  1.00  0.00     0.161 C 
BRANCH  11  12
ATOM     12  C   UNL     1      21.983  31.324   9.404  1.00  0.00     0.033 A 
ATOM     13  C   UNL     1      21.254  32.152  10.279  1.00  0.00     0.051 A 
ATOM     14  C   UNL     1      23.083  31.870   8.719  1.00  0.00     0.051 A 
ATOM     15  C   UNL     1      21.615  33.493  10.456  1.00  0.00     0.021 A 
ATOM     16  C   UNL     1      23.434  33.214   8.904  1.00  0.00     0.021 A 
ATOM     17  C   UNL     1      22.702  34.023   9.769  1.00  0.00     0.003 A 
ATOM     18  Cl  UNL     1      19.866  31.600  11.152  1.00  0.00    -0.084 Cl
ATOM     19  Cl  UNL     1      24.105  30.959   7.658  1.00  0.00    -0.084 Cl
ENDBRANCH  11  12
ENDBRANCH   1  11
TORSDOF 4
ENDMDL
MODEL 6
REMARK VINA RESULT:    -4.353      3.094      4.918
REMARK INTER + INTRA:          -5.462
REMARK INTER:                  -5.209
REMARK INTRA:                  -0.253
REMARK UNBOUND:                -0.219
REMARK SMILES NC(=[NH2+])NN=Cc1c(Cl)cccc1Cl
REMARK SMILES IDX 5 1 4 2 2 3 1 4 3 8 6 11 7 12 8 13 13 14 10 15 12 16 11 17
REMARK SMILES IDX 9 18 14 19
REMARK H PARENT 4 5 1 6 1 7 3 9 3 10
ROOT
ATOM      1  N   UNL     1      22.160  33.533   9.618  1.00  0.00    -0.121 NA
ENDROOT
BRANCH   1   2
ATOM      2  N   UNL     1      22.078  33.854   8.296  1.00  0.00    -0.157 N 
ATOM      3  C   UNL     1      22.684  35.007   7.886  1.00  0.00     0.362 C 
ATOM      4  N   UNL     1      22.624  35.396   6.609  1.00  0.00    -0.289 N 
ATOM      5  H   UNL     1      21.593  33.282   7.610  1.00  0.00     0.295 HD
ATOM      6  H   UNL     1      22.127  34.859   5.910  1.00  0.00     0.256 HD
ATOM      7  H   UNL     1      23.074  36.250   6.306  1.00  0.00     0.256 HD
BRANCH   3   8
ATOM      8  N   UNL     1      23.348  35.756   8.771  1.00  0.00    -0.289 N 
ATOM      9  H   UNL     1      23.386  36.754   8.579  1.00  0.00     0.256 HD
ATOM     10  H   UNL     1      23.789  35.395   9.603  1.00  0.00     0.256 HD
ENDBRANCH   3   8
ENDBRANCH   1   2
BRANCH   1  11
ATOM     11  C   UNL     1      21.076  33.051  10.144  1.00  0.00     0.161 C 
BRANCH  11  12
ATOM     12  C   UNL     1      21.084  32.120  11.298  1.00  0.00     0.033 A 
ATOM     13  C   UNL     1      21.016  30.737  11.048  1.00  0.00     0.051 A 
ATOM     14  C   UNL     1      21.164  32.562  12.631  1.00  0.00     0.051 A 
ATOM     15  C   UNL     1      21.021  29.821  12.107  1.00  0.00     0.021 A 
ATOM     16  C   UNL     1      21.168  31.636  13.682  1.00  0.00     0.021 A 
ATOM     17  C   UNL     1      21.096  30.270  13.422  1.00  0.00     0.003 A 
ATOM     18  Cl  UNL     1      20.884  30.079   9.453  1.00  0.00    -0.084 Cl
ATOM     19  Cl  UNL     1      21.310  34.226  13.086  1.00  0.00    -0.084 Cl
ENDBRANCH  11  12
ENDBRANCH   1  11
TORSDOF 4
ENDMDL
MODEL 7
REMARK VINA RESULT:    -4.223     10.922     12.042
REMARK INTER + INTRA:          -5.306
REMARK INTER:                  -5.029
REMARK INTRA:                  -0.277
REMARK UNBOUND:                -0.219
REMARK SMILES NC(=[NH2+])NN=Cc1c(Cl)cccc1Cl
REMARK SMILES IDX 5 1 4 2 2 3 1 4 3 8 6 11 7 12 8 13 13 14 10 15 12 16 11 17
REMARK SMILES IDX 9 18 14 19
REMARK H PARENT 4 5 1 6 1 7 3 9 3 10
ROOT
ATOM      1  N   UNL     1      19.544  43.714  10.881  1.00  0.00    -0.121 NA
ENDROOT
BRANCH   1   2
ATOM      2  N   UNL     1      18.472  43.689  10.041  1.00  0.00    -0.157 N 
ATOM      3  C   UNL     1      18.230  44.802   9.289  1.00  0.00     0.362 C 
ATOM      4  N   UNL     1      17.181  44.856   8.462  1.00  0.00    -0.289 N 
ATOM      5  H   UNL     1      17.851  42.889   9.950  1.00  0.00     0.295 HD
ATOM      6  H   UNL     1      16.534  44.085   8.369  1.00  0.00     0.256 HD
ATOM      7  H   UNL     1      17.004  45.682   7.904  1.00  0.00     0.256 HD
BRANCH   3   8
ATOM      8  N   UNL     1      19.052  45.852   9.378  1.00  0.00    -0.289 N 
ATOM      9  H   UNL     1      19.794  45.787  10.070  1.00  0.00     0.256 HD
ATOM     10  H   UNL     1      18.986  46.675   8.800  1.00  0.00     0.256 HD
ENDBRANCH   3   8
ENDBRANCH   1   2
BRANCH   1  11
ATOM     11  C   UNL     1      19.994  42.554  11.248  1.00  0.00     0.161 C 
BRANCH  11  12
ATOM     12  C   UNL     1      20.288  42.213  12.662  1.00  0.00     0.033 A 
ATOM     13  C   UNL     1      19.306  41.538  13.411  1.00  0.00     0.051 A 
ATOM     14  C   UNL     1      21.510  42.530  13.282  1.00  0.00     0.051 A 
ATOM     15  C   UNL     1      19.540  41.196  14.747  1.00  0.00     0.021 A 
ATOM     16  C   UNL     1      21.732  42.183  14.621  1.00  0.00     0.021 A 
ATOM     17  C   UNL     1      20.751  41.519  15.352  1.00  0.00     0.003 A 
ATOM     18  Cl  UNL     1      17.755  41.123  12.763  1.00  0.00    -0.084 Cl
ATOM     19  Cl  UNL     1      22.829  43.305  12.470  1.00  0.00    -0.084 Cl
ENDBRANCH  11  12
ENDBRANCH   1  11
TORSDOF 4
ENDMDL
MODEL 8
REMARK VINA RESULT:    -4.201      3.236      5.927
REMARK INTER + INTRA:          -5.280
REMARK INTER:                  -5.119
REMARK INTRA:                  -0.161
REMARK UNBOUND:                -0.219
REMARK SMILES NC(=[NH2+])NN=Cc1c(Cl)cccc1Cl
REMARK SMILES IDX 5 1 4 2 2 3 1 4 3 8 6 11 7 12 8 13 13 14 10 15 12 16 11 17
REMARK SMILES IDX 9 18 14 19
REMARK H PARENT 4 5 1 6 1 7 3 9 3 10
ROOT
ATOM      1  N   UNL     1      21.973  31.458   8.429  1.00  0.00    -0.121 NA
ENDROOT
BRANCH   1   2
ATOM      2  N   UNL     1      21.756  31.298   7.094  1.00  0.00    -0.157 N 
ATOM      3  C   UNL     1      21.308  30.081   6.667  1.00  0.00     0.362 C 
ATOM      4  N   UNL     1      21.097  29.846   5.368  1.00  0.00    -0.289 N 
ATOM      5  H   UNL     1      21.910  32.034   6.409  1.00  0.00     0.295 HD
ATOM      6  H   UNL     1      21.265  30.552   4.663  1.00  0.00     0.256 HD
ATOM      7  H   UNL     1      20.764  28.944   5.053  1.00  0.00     0.256 HD
BRANCH   3   8
ATOM      8  N   UNL     1      21.075  29.112   7.556  1.00  0.00    -0.289 N 
ATOM      9  H   UNL     1      21.687  29.089   8.369  1.00  0.00     0.256 HD
ATOM     10  H   UNL     1      20.337  28.431   7.473  1.00  0.00     0.256 HD
ENDBRANCH   3   8
ENDBRANCH   1   2
BRANCH   1  11
ATOM     11  C   UNL     1      21.552  32.577   8.934  1.00  0.00     0.161 C 
BRANCH  11  12
ATOM     12  C   UNL     1      21.796  32.969  10.343  1.00  0.00     0.033 A 
ATOM     13  C   UNL     1      21.115  32.277  11.363  1.00  0.00     0.051 A 
ATOM     14  C   UNL     1      22.685  33.997  10.703  1.00  0.00     0.051 A 
ATOM     15  C   UNL     1      21.315  32.613  12.706  1.00  0.00     0.021 A 
ATOM     16  C   UNL     1      22.877  34.324  12.052  1.00  0.00     0.021 A 
ATOM     17  C   UNL     1      22.194  33.635  13.051  1.00  0.00     0.003 A 
ATOM     18  Cl  UNL     1      19.976  31.015  11.039  1.00  0.00    -0.084 Cl
ATOM     19  Cl  UNL     1      23.633  34.893   9.564  1.00  0.00    -0.084 Cl
ENDBRANCH  11  12
ENDBRANCH   1  11
TORSDOF 4
ENDMDL
MODEL 9
REMARK VINA RESULT:    -4.196      2.891      5.379
REMARK INTER + INTRA:          -5.273
REMARK INTER:                  -4.975
REMARK INTRA:                  -0.298
REMARK UNBOUND:                -0.219
REMARK SMILES NC(=[NH2+])NN=Cc1c(Cl)cccc1Cl
REMARK SMILES IDX 5 1 4 2 2 3 1 4 3 8 6 11 7 12 8 13 13 14 10 15 12 16 11 17
REMARK SMILES IDX 9 18 14 19
REMARK H PARENT 4 5 1 6 1 7 3 9 3 10
ROOT
ATOM      1  N   UNL     1      21.227  30.720   9.641  1.00  0.00    -0.121 NA
ENDROOT
BRANCH   1   2
ATOM      2  N   UNL     1      21.485  31.147   8.373  1.00  0.00    -0.157 N 
ATOM      3  C   UNL     1      21.327  30.250   7.357  1.00  0.00     0.362 C 
ATOM      4  N   UNL     1      21.585  30.594   6.092  1.00  0.00    -0.289 N 
ATOM      5  H   UNL     1      21.785  32.093   8.152  1.00  0.00     0.295 HD
ATOM      6  H   UNL     1      21.908  31.521   5.846  1.00  0.00     0.256 HD
ATOM      7  H   UNL     1      21.467  29.928   5.340  1.00  0.00     0.256 HD
BRANCH   3   8
ATOM      8  N   UNL     1      20.907  29.011   7.629  1.00  0.00    -0.289 N 
ATOM      9  H   UNL     1      19.937  28.803   7.403  1.00  0.00     0.256 HD
ATOM     10  H   UNL     1      21.489  28.287   8.020  1.00  0.00     0.256 HD
ENDBRANCH   3   8
ENDBRANCH   1   2
BRANCH   1  11
ATOM     11  C   UNL     1      22.122  31.028  10.528  1.00  0.00     0.161 C 
BRANCH  11  12
ATOM     12  C   UNL     1      21.834  31.894  11.697  1.00  0.00     0.033 A 
ATOM     13  C   UNL     1      22.081  33.276  11.588  1.00  0.00     0.051 A 
ATOM     14  C   UNL     1      21.320  31.394  12.906  1.00  0.00     0.051 A 
ATOM     15  C   UNL     1      21.823  34.132  12.665  1.00  0.00     0.021 A 
ATOM     16  C   UNL     1      21.067  32.261  13.978  1.00  0.00     0.021 A 
ATOM     17  C   UNL     1      21.319  33.625  13.858  1.00  0.00     0.003 A 
ATOM     18  Cl  UNL     1      22.740  34.000  10.161  1.00  0.00    -0.084 Cl
ATOM     19  Cl  UNL     1      20.916  29.730  13.165  1.00  0.00    -0.084 Cl
ENDBRANCH  11  12
ENDBRANCH   1  11
TORSDOF 4
ENDMDL
