MODEL 1
REMARK VINA RESULT:    -5.841      0.000      0.000
REMARK INTER + INTRA:          -7.905
REMARK INTER:                  -7.207
REMARK INTRA:                  -0.698
REMARK UNBOUND:                -0.698
REMARK SMILES Cc1cc(C)cc(NC(N)=[NH+]c2ccccc2C(F)(F)F)c1
REMARK SMILES IDX 11 1 9 3 8 4 10 5 7 9 22 10 6 11 2 12 4 13 3 14 1 15 5 16
REMARK SMILES IDX 12 17 13 18 17 19 14 20 16 21 15 22 18 23 19 24 20 25 21 26
REMARK H PARENT 11 2 8 6 10 7 10 8
ROOT
ATOM      1  N   UNL     1      22.481  41.326   8.037  1.00  0.00    -0.245 N 
ATOM      2  H   UNL     1      21.519  41.231   7.714  1.00  0.00     0.267 HD
ENDROOT
BRANCH   1   3
ATOM      3  C   UNL     1      22.974  42.590   8.098  1.00  0.00     0.351 C 
ATOM      4  N   UNL     1      22.551  43.478   9.031  1.00  0.00    -0.245 N 
ATOM      5  N   UNL     1      23.909  43.030   7.232  1.00  0.00    -0.290 N 
ATOM      6  H   UNL     1      23.205  44.201   9.310  1.00  0.00     0.267 HD
ATOM      7  H   UNL     1      24.242  43.985   7.261  1.00  0.00     0.256 HD
ATOM      8  H   UNL     1      24.149  42.490   6.411  1.00  0.00     0.256 HD
BRANCH   4   9
ATOM      9  C   UNL     1      21.306  43.444   9.715  1.00  0.00     0.100 A 
ATOM     10  C   UNL     1      20.250  44.178   9.172  1.00  0.00     0.046 A 
ATOM     11  C   UNL     1      21.087  42.648  10.843  1.00  0.00     0.046 A 
ATOM     12  C   UNL     1      18.988  44.165   9.778  1.00  0.00    -0.047 A 
ATOM     13  C   UNL     1      19.841  42.648  11.480  1.00  0.00    -0.047 A 
ATOM     14  C   UNL     1      18.797  43.410  10.941  1.00  0.00     0.007 A 
ATOM     15  C   UNL     1      17.865  44.994   9.223  1.00  0.00     0.044 C 
ATOM     16  C   UNL     1      19.599  41.782  12.684  1.00  0.00     0.044 C 
ENDBRANCH   4   9
ENDBRANCH   1   3
BRANCH   1  17
ATOM     17  C   UNL     1      23.134  40.125   8.451  1.00  0.00     0.111 A 
ATOM     18  C   UNL     1      23.828  40.059   9.665  1.00  0.00     0.043 A 
ATOM     19  C   UNL     1      23.003  38.963   7.672  1.00  0.00     0.094 A 
ATOM     20  C   UNL     1      24.441  38.873  10.074  1.00  0.00     0.004 A 
ATOM     21  C   UNL     1      23.632  37.776   8.089  1.00  0.00     0.017 A 
ATOM     22  C   UNL     1      24.351  37.734   9.282  1.00  0.00     0.001 A 
BRANCH  19  23
ATOM     23  C   UNL     1      22.258  38.987   6.369  1.00  0.00     0.419 C 
ATOM     24  F   UNL     1      20.928  39.208   6.545  1.00  0.00    -0.166 F 
ATOM     25  F   UNL     1      22.696  39.923   5.491  1.00  0.00    -0.166 F 
ATOM     26  F   UNL     1      22.339  37.787   5.718  1.00  0.00    -0.166 F 
ENDBRANCH  19  23
ENDBRANCH   1  17
TORSDOF 4
ENDMDL
MODEL 2
REMARK VINA RESULT:    -5.823      8.055     10.192
REMARK INTER + INTRA:          -7.883
REMARK INTER:                  -6.954
REMARK INTRA:                  -0.929
REMARK UNBOUND:                -0.698
REMARK SMILES Cc1cc(C)cc(NC(N)=[NH+]c2ccccc2C(F)(F)F)c1
REMARK SMILES IDX 11 1 9 3 8 4 10 5 7 9 22 10 6 11 2 12 4 13 3 14 1 15 5 16
REMARK SMILES IDX 12 17 13 18 17 19 14 20 16 21 15 22 18 23 19 24 20 25 21 26
REMARK H PARENT 11 2 8 6 10 7 10 8
ROOT
ATOM      1  N   UNL     1      21.956  30.744  10.893  1.00  0.00    -0.245 N 
ATOM      2  H   UNL     1      22.885  30.925  11.273  1.00  0.00     0.267 HD
ENDROOT
BRANCH   1   3
ATOM      3  C   UNL     1      20.946  30.634  11.795  1.00  0.00     0.351 C 
ATOM      4  N   UNL     1      20.759  31.553  12.774  1.00  0.00    -0.245 N 
ATOM      5  N   UNL     1      20.078  29.604  11.766  1.00  0.00    -0.290 N 
ATOM      6  H   UNL     1      19.814  31.674  13.119  1.00  0.00     0.267 HD
ATOM      7  H   UNL     1      19.353  29.510  12.465  1.00  0.00     0.256 HD
ATOM      8  H   UNL     1      20.251  28.798  11.180  1.00  0.00     0.256 HD
BRANCH   4   9
ATOM      9  C   UNL     1      21.750  32.423  13.305  1.00  0.00     0.100 A 
ATOM     10  C   UNL     1      21.487  33.794  13.278  1.00  0.00     0.046 A 
ATOM     11  C   UNL     1      22.916  31.954  13.917  1.00  0.00     0.046 A 
ATOM     12  C   UNL     1      22.406  34.705  13.812  1.00  0.00    -0.047 A 
ATOM     13  C   UNL     1      23.860  32.853  14.426  1.00  0.00    -0.047 A 
ATOM     14  C   UNL     1      23.598  34.227  14.369  1.00  0.00     0.007 A 
ATOM     15  C   UNL     1      22.147  36.183  13.739  1.00  0.00     0.044 C 
ATOM     16  C   UNL     1      25.107  32.350  15.097  1.00  0.00     0.044 C 
ENDBRANCH   4   9
ENDBRANCH   1   3
BRANCH   1  17
ATOM     17  C   UNL     1      21.847  30.714   9.469  1.00  0.00     0.111 A 
ATOM     18  C   UNL     1      21.721  29.503   8.777  1.00  0.00     0.043 A 
ATOM     19  C   UNL     1      21.773  31.922   8.755  1.00  0.00     0.094 A 
ATOM     20  C   UNL     1      21.588  29.485   7.387  1.00  0.00     0.004 A 
ATOM     21  C   UNL     1      21.648  31.891   7.354  1.00  0.00     0.017 A 
ATOM     22  C   UNL     1      21.560  30.678   6.675  1.00  0.00     0.001 A 
BRANCH  19  23
ATOM     23  C   UNL     1      21.893  33.243   9.459  1.00  0.00     0.419 C 
ATOM     24  F   UNL     1      20.779  33.539  10.180  1.00  0.00    -0.166 F 
ATOM     25  F   UNL     1      22.944  33.330  10.311  1.00  0.00    -0.166 F 
ATOM     26  F   UNL     1      22.033  34.276   8.574  1.00  0.00    -0.166 F 
ENDBRANCH  19  23
ENDBRANCH   1  17
TORSDOF 4
ENDMDL
MODEL 3
REMARK VINA RESULT:    -5.798      8.049     10.342
REMARK INTER + INTRA:          -7.852
REMARK INTER:                  -6.991
REMARK INTRA:                  -0.862
REMARK UNBOUND:                -0.698
REMARK SMILES Cc1cc(C)cc(NC(N)=[NH+]c2ccccc2C(F)(F)F)c1
REMARK SMILES IDX 11 1 9 3 8 4 10 5 7 9 22 10 6 11 2 12 4 13 3 14 1 15 5 16
REMARK SMILES IDX 12 17 13 18 17 19 14 20 16 21 15 22 18 23 19 24 20 25 21 26
REMARK H PARENT 11 2 8 6 10 7 10 8
ROOT
ATOM      1  N   UNL     1      21.990  30.749  10.914  1.00  0.00    -0.245 N 
ATOM      2  H   UNL     1      22.909  30.980  11.288  1.00  0.00     0.267 HD
ENDROOT
BRANCH   1   3
ATOM      3  C   UNL     1      20.993  30.584  11.822  1.00  0.00     0.351 C 
ATOM      4  N   UNL     1      20.750  31.500  12.792  1.00  0.00    -0.245 N 
ATOM      5  N   UNL     1      20.196  29.497  11.811  1.00  0.00    -0.290 N 
ATOM      6  H   UNL     1      19.801  31.561  13.140  1.00  0.00     0.267 HD
ATOM      7  H   UNL     1      19.482  29.363  12.515  1.00  0.00     0.256 HD
ATOM      8  H   UNL     1      20.420  28.697  11.233  1.00  0.00     0.256 HD
BRANCH   4   9
ATOM      9  C   UNL     1      21.683  32.440  13.307  1.00  0.00     0.100 A 
ATOM     10  C   UNL     1      22.885  31.945  13.817  1.00  0.00     0.046 A 
ATOM     11  C   UNL     1      21.475  33.820  13.246  1.00  0.00     0.046 A 
ATOM     12  C   UNL     1      23.861  32.817  14.313  1.00  0.00    -0.047 A 
ATOM     13  C   UNL     1      22.425  34.706  13.767  1.00  0.00    -0.047 A 
ATOM     14  C   UNL     1      23.616  34.195  14.299  1.00  0.00     0.007 A 
ATOM     15  C   UNL     1      25.133  32.282  14.906  1.00  0.00     0.044 C 
ATOM     16  C   UNL     1      22.209  36.190  13.688  1.00  0.00     0.044 C 
ENDBRANCH   4   9
ENDBRANCH   1   3
BRANCH   1  17
ATOM     17  C   UNL     1      21.872  30.716   9.490  1.00  0.00     0.111 A 
ATOM     18  C   UNL     1      21.753  29.503   8.802  1.00  0.00     0.043 A 
ATOM     19  C   UNL     1      21.783  31.922   8.775  1.00  0.00     0.094 A 
ATOM     20  C   UNL     1      21.611  29.481   7.412  1.00  0.00     0.004 A 
ATOM     21  C   UNL     1      21.650  31.888   7.375  1.00  0.00     0.017 A 
ATOM     22  C   UNL     1      21.569  30.673   6.699  1.00  0.00     0.001 A 
BRANCH  19  23
ATOM     23  C   UNL     1      21.896  33.245   9.476  1.00  0.00     0.419 C 
ATOM     24  F   UNL     1      20.784  33.532  10.205  1.00  0.00    -0.166 F 
ATOM     25  F   UNL     1      22.952  33.344  10.320  1.00  0.00    -0.166 F 
ATOM     26  F   UNL     1      22.019  34.278   8.589  1.00  0.00    -0.166 F 
ENDBRANCH  19  23
ENDBRANCH   1  17
TORSDOF 4
ENDMDL
MODEL 4
REMARK VINA RESULT:    -5.601      8.453     10.389
REMARK INTER + INTRA:          -7.609
REMARK INTER:                  -6.670
REMARK INTRA:                  -0.940
REMARK UNBOUND:                -0.698
REMARK SMILES Cc1cc(C)cc(NC(N)=[NH+]c2ccccc2C(F)(F)F)c1
REMARK SMILES IDX 11 1 9 3 8 4 10 5 7 9 22 10 6 11 2 12 4 13 3 14 1 15 5 16
REMARK SMILES IDX 12 17 13 18 17 19 14 20 16 21 15 22 18 23 19 24 20 25 21 26
REMARK H PARENT 11 2 8 6 10 7 10 8
ROOT
ATOM      1  N   UNL     1      21.374  31.275   7.910  1.00  0.00    -0.245 N 
ATOM      2  H   UNL     1      20.571  31.898   7.843  1.00  0.00     0.267 HD
ENDROOT
BRANCH   1   3
ATOM      3  C   UNL     1      21.141  30.045   8.438  1.00  0.00     0.351 C 
ATOM      4  N   UNL     1      21.071  29.842   9.776  1.00  0.00    -0.245 N 
ATOM      5  N   UNL     1      20.969  28.959   7.658  1.00  0.00    -0.290 N 
ATOM      6  H   UNL     1      20.498  29.070  10.097  1.00  0.00     0.267 HD
ATOM      7  H   UNL     1      20.834  28.041   8.059  1.00  0.00     0.256 HD
ATOM      8  H   UNL     1      21.174  28.996   6.667  1.00  0.00     0.256 HD
BRANCH   4   9
ATOM      9  C   UNL     1      21.659  30.661  10.778  1.00  0.00     0.100 A 
ATOM     10  C   UNL     1      23.048  30.618  10.914  1.00  0.00     0.046 A 
ATOM     11  C   UNL     1      20.915  31.550  11.558  1.00  0.00     0.046 A 
ATOM     12  C   UNL     1      23.696  31.421  11.860  1.00  0.00    -0.047 A 
ATOM     13  C   UNL     1      21.542  32.337  12.531  1.00  0.00    -0.047 A 
ATOM     14  C   UNL     1      22.933  32.266  12.676  1.00  0.00     0.007 A 
ATOM     15  C   UNL     1      25.184  31.339  12.041  1.00  0.00     0.044 C 
ATOM     16  C   UNL     1      20.745  33.304  13.360  1.00  0.00     0.044 C 
ENDBRANCH   4   9
ENDBRANCH   1   3
BRANCH   1  17
ATOM     17  C   UNL     1      22.602  31.760   7.366  1.00  0.00     0.111 A 
ATOM     18  C   UNL     1      23.315  31.021   6.414  1.00  0.00     0.043 A 
ATOM     19  C   UNL     1      23.059  33.040   7.721  1.00  0.00     0.094 A 
ATOM     20  C   UNL     1      24.501  31.515   5.868  1.00  0.00     0.004 A 
ATOM     21  C   UNL     1      24.259  33.524   7.171  1.00  0.00     0.017 A 
ATOM     22  C   UNL     1      24.978  32.762   6.253  1.00  0.00     0.001 A 
BRANCH  19  23
ATOM     23  C   UNL     1      22.319  33.871   8.730  1.00  0.00     0.419 C 
ATOM     24  F   UNL     1      22.086  35.133   8.279  1.00  0.00    -0.166 F 
ATOM     25  F   UNL     1      21.118  33.362   9.101  1.00  0.00    -0.166 F 
ATOM     26  F   UNL     1      23.039  34.028   9.882  1.00  0.00    -0.166 F 
ENDBRANCH  19  23
ENDBRANCH   1  17
TORSDOF 4
ENDMDL
MODEL 5
REMARK VINA RESULT:    -5.408      2.770      6.028
REMARK INTER + INTRA:          -7.371
REMARK INTER:                  -6.527
REMARK INTRA:                  -0.844
REMARK UNBOUND:                -0.698
REMARK SMILES Cc1cc(C)cc(NC(N)=[NH+]c2ccccc2C(F)(F)F)c1
REMARK SMILES IDX 11 1 9 3 8 4 10 5 7 9 22 10 6 11 2 12 4 13 3 14 1 15 5 16
REMARK SMILES IDX 12 17 13 18 17 19 14 20 16 21 15 22 18 23 19 24 20 25 21 26
REMARK H PARENT 11 2 8 6 10 7 10 8
ROOT
ATOM      1  N   UNL     1      21.097  43.036   8.819  1.00  0.00    -0.245 N 
ATOM      2  H   UNL     1      20.409  42.771   8.115  1.00  0.00     0.267 HD
ENDROOT
BRANCH   1   3
ATOM      3  C   UNL     1      22.279  43.520   8.355  1.00  0.00     0.351 C 
ATOM      4  N   UNL     1      23.222  42.708   7.818  1.00  0.00    -0.245 N 
ATOM      5  N   UNL     1      22.577  44.833   8.407  1.00  0.00    -0.290 N 
ATOM      6  H   UNL     1      23.845  43.116   7.132  1.00  0.00     0.267 HD
ATOM      7  H   UNL     1      23.475  45.179   8.095  1.00  0.00     0.256 HD
ATOM      8  H   UNL     1      22.004  45.473   8.942  1.00  0.00     0.256 HD
BRANCH   4   9
ATOM      9  C   UNL     1      23.368  41.316   8.067  1.00  0.00     0.100 A 
ATOM     10  C   UNL     1      22.903  40.434   7.090  1.00  0.00     0.046 A 
ATOM     11  C   UNL     1      24.024  40.816   9.194  1.00  0.00     0.046 A 
ATOM     12  C   UNL     1      23.041  39.050   7.256  1.00  0.00    -0.047 A 
ATOM     13  C   UNL     1      24.143  39.435   9.393  1.00  0.00    -0.047 A 
ATOM     14  C   UNL     1      23.648  38.560   8.418  1.00  0.00     0.007 A 
ATOM     15  C   UNL     1      22.497  38.099   6.230  1.00  0.00     0.044 C 
ATOM     16  C   UNL     1      24.861  38.896  10.597  1.00  0.00     0.044 C 
ENDBRANCH   4   9
ENDBRANCH   1   3
BRANCH   1  17
ATOM     17  C   UNL     1      20.684  42.933  10.183  1.00  0.00     0.111 A 
ATOM     18  C   UNL     1      21.343  42.081  11.077  1.00  0.00     0.043 A 
ATOM     19  C   UNL     1      19.658  43.766  10.660  1.00  0.00     0.094 A 
ATOM     20  C   UNL     1      20.949  42.006  12.415  1.00  0.00     0.004 A 
ATOM     21  C   UNL     1      19.264  43.677  12.007  1.00  0.00     0.017 A 
ATOM     22  C   UNL     1      19.904  42.798  12.877  1.00  0.00     0.001 A 
BRANCH  19  23
ATOM     23  C   UNL     1      18.933  44.703   9.737  1.00  0.00     0.419 C 
ATOM     24  F   UNL     1      19.756  45.661   9.233  1.00  0.00    -0.166 F 
ATOM     25  F   UNL     1      18.342  44.098   8.677  1.00  0.00    -0.166 F 
ATOM     26  F   UNL     1      17.942  45.386  10.386  1.00  0.00    -0.166 F 
ENDBRANCH  19  23
ENDBRANCH   1  17
TORSDOF 4
ENDMDL
MODEL 6
REMARK VINA RESULT:    -5.391      8.157      9.944
REMARK INTER + INTRA:          -7.350
REMARK INTER:                  -6.591
REMARK INTRA:                  -0.759
REMARK UNBOUND:                -0.698
REMARK SMILES Cc1cc(C)cc(NC(N)=[NH+]c2ccccc2C(F)(F)F)c1
REMARK SMILES IDX 11 1 9 3 8 4 10 5 7 9 22 10 6 11 2 12 4 13 3 14 1 15 5 16
REMARK SMILES IDX 12 17 13 18 17 19 14 20 16 21 15 22 18 23 19 24 20 25 21 26
REMARK H PARENT 11 2 8 6 10 7 10 8
ROOT
ATOM      1  N   UNL     1      22.014  31.301  10.829  1.00  0.00    -0.245 N 
ATOM      2  H   UNL     1      22.873  30.815  11.085  1.00  0.00     0.267 HD
ENDROOT
BRANCH   1   3
ATOM      3  C   UNL     1      20.947  31.112  11.649  1.00  0.00     0.351 C 
ATOM      4  N   UNL     1      20.697  31.933  12.698  1.00  0.00    -0.245 N 
ATOM      5  N   UNL     1      20.082  30.095  11.465  1.00  0.00    -0.290 N 
ATOM      6  H   UNL     1      19.732  32.026  12.991  1.00  0.00     0.267 HD
ATOM      7  H   UNL     1      19.313  29.938  12.103  1.00  0.00     0.256 HD
ATOM      8  H   UNL     1      20.293  29.348  10.816  1.00  0.00     0.256 HD
BRANCH   4   9
ATOM      9  C   UNL     1      21.652  32.741  13.375  1.00  0.00     0.100 A 
ATOM     10  C   UNL     1      21.506  34.126  13.283  1.00  0.00     0.046 A 
ATOM     11  C   UNL     1      22.659  32.203  14.179  1.00  0.00     0.046 A 
ATOM     12  C   UNL     1      22.392  34.981  13.949  1.00  0.00    -0.047 A 
ATOM     13  C   UNL     1      23.574  33.042  14.826  1.00  0.00    -0.047 A 
ATOM     14  C   UNL     1      23.434  34.430  14.705  1.00  0.00     0.007 A 
ATOM     15  C   UNL     1      22.266  36.471  13.811  1.00  0.00     0.044 C 
ATOM     16  C   UNL     1      24.650  32.466  15.703  1.00  0.00     0.044 C 
ENDBRANCH   4   9
ENDBRANCH   1   3
BRANCH   1  17
ATOM     17  C   UNL     1      22.087  32.168   9.697  1.00  0.00     0.111 A 
ATOM     18  C   UNL     1      22.238  33.551   9.851  1.00  0.00     0.043 A 
ATOM     19  C   UNL     1      22.099  31.618   8.404  1.00  0.00     0.094 A 
ATOM     20  C   UNL     1      22.335  34.389   8.738  1.00  0.00     0.004 A 
ATOM     21  C   UNL     1      22.189  32.471   7.289  1.00  0.00     0.017 A 
ATOM     22  C   UNL     1      22.302  33.850   7.457  1.00  0.00     0.001 A 
BRANCH  19  23
ATOM     23  C   UNL     1      21.951  30.139   8.193  1.00  0.00     0.419 C 
ATOM     24  F   UNL     1      22.122  29.789   6.889  1.00  0.00    -0.166 F 
ATOM     25  F   UNL     1      22.813  29.381   8.915  1.00  0.00    -0.166 F 
ATOM     26  F   UNL     1      20.697  29.705   8.520  1.00  0.00    -0.166 F 
ENDBRANCH  19  23
ENDBRANCH   1  17
TORSDOF 4
ENDMDL
MODEL 7
REMARK VINA RESULT:    -5.363      8.081     10.010
REMARK INTER + INTRA:          -7.315
REMARK INTER:                  -6.614
REMARK INTRA:                  -0.700
REMARK UNBOUND:                -0.698
REMARK SMILES Cc1cc(C)cc(NC(N)=[NH+]c2ccccc2C(F)(F)F)c1
REMARK SMILES IDX 11 1 9 3 8 4 10 5 7 9 22 10 6 11 2 12 4 13 3 14 1 15 5 16
REMARK SMILES IDX 12 17 13 18 17 19 14 20 16 21 15 22 18 23 19 24 20 25 21 26
REMARK H PARENT 11 2 8 6 10 7 10 8
ROOT
ATOM      1  N   UNL     1      21.979  31.417  10.870  1.00  0.00    -0.245 N 
ATOM      2  H   UNL     1      22.834  30.951  11.172  1.00  0.00     0.267 HD
ENDROOT
BRANCH   1   3
ATOM      3  C   UNL     1      20.887  31.242  11.659  1.00  0.00     0.351 C 
ATOM      4  N   UNL     1      20.588  32.099  12.666  1.00  0.00    -0.245 N 
ATOM      5  N   UNL     1      20.044  30.205  11.485  1.00  0.00    -0.290 N 
ATOM      6  H   UNL     1      19.611  32.188  12.921  1.00  0.00     0.267 HD
ATOM      7  H   UNL     1      19.255  30.061  12.101  1.00  0.00     0.256 HD
ATOM      8  H   UNL     1      20.288  29.437  10.873  1.00  0.00     0.256 HD
BRANCH   4   9
ATOM      9  C   UNL     1      21.506  32.948  13.343  1.00  0.00     0.100 A 
ATOM     10  C   UNL     1      22.522  32.340  14.081  1.00  0.00     0.046 A 
ATOM     11  C   UNL     1      21.473  34.340  13.226  1.00  0.00     0.046 A 
ATOM     12  C   UNL     1      23.478  33.115  14.749  1.00  0.00    -0.047 A 
ATOM     13  C   UNL     1      22.400  35.132  13.913  1.00  0.00    -0.047 A 
ATOM     14  C   UNL     1      23.400  34.511  14.672  1.00  0.00     0.007 A 
ATOM     15  C   UNL     1      24.543  32.464  15.584  1.00  0.00     0.044 C 
ATOM     16  C   UNL     1      22.375  36.628  13.777  1.00  0.00     0.044 C 
ENDBRANCH   4   9
ENDBRANCH   1   3
BRANCH   1  17
ATOM     17  C   UNL     1      22.082  32.245   9.711  1.00  0.00     0.111 A 
ATOM     18  C   UNL     1      22.242  33.631   9.823  1.00  0.00     0.043 A 
ATOM     19  C   UNL     1      22.113  31.652   8.437  1.00  0.00     0.094 A 
ATOM     20  C   UNL     1      22.369  34.430   8.685  1.00  0.00     0.004 A 
ATOM     21  C   UNL     1      22.232  32.467   7.297  1.00  0.00     0.017 A 
ATOM     22  C   UNL     1      22.354  33.849   7.422  1.00  0.00     0.001 A 
BRANCH  19  23
ATOM     23  C   UNL     1      21.955  30.168   8.273  1.00  0.00     0.419 C 
ATOM     24  F   UNL     1      22.843  29.473   9.034  1.00  0.00    -0.166 F 
ATOM     25  F   UNL     1      20.722  29.698   8.585  1.00  0.00    -0.166 F 
ATOM     26  F   UNL     1      22.199  29.773   6.987  1.00  0.00    -0.166 F 
ENDBRANCH  19  23
ENDBRANCH   1  17
TORSDOF 4
ENDMDL
MODEL 8
REMARK VINA RESULT:    -5.301      8.886     11.194
REMARK INTER + INTRA:          -7.239
REMARK INTER:                  -6.130
REMARK INTRA:                  -1.108
REMARK UNBOUND:                -0.698
REMARK SMILES Cc1cc(C)cc(NC(N)=[NH+]c2ccccc2C(F)(F)F)c1
REMARK SMILES IDX 11 1 9 3 8 4 10 5 7 9 22 10 6 11 2 12 4 13 3 14 1 15 5 16
REMARK SMILES IDX 12 17 13 18 17 19 14 20 16 21 15 22 18 23 19 24 20 25 21 26
REMARK H PARENT 11 2 8 6 10 7 10 8
ROOT
ATOM      1  N   UNL     1      21.091  30.942   9.415  1.00  0.00    -0.245 N 
ATOM      2  H   UNL     1      20.775  31.826   9.017  1.00  0.00     0.267 HD
ENDROOT
BRANCH   1   3
ATOM      3  C   UNL     1      21.570  30.022   8.538  1.00  0.00     0.351 C 
ATOM      4  N   UNL     1      22.881  29.973   8.199  1.00  0.00    -0.245 N 
ATOM      5  N   UNL     1      20.765  29.111   7.956  1.00  0.00    -0.290 N 
ATOM      6  H   UNL     1      23.251  29.072   7.917  1.00  0.00     0.267 HD
ATOM      7  H   UNL     1      21.123  28.455   7.274  1.00  0.00     0.256 HD
ATOM      8  H   UNL     1      19.758  29.191   8.025  1.00  0.00     0.256 HD
BRANCH   4   9
ATOM      9  C   UNL     1      23.807  31.047   8.279  1.00  0.00     0.100 A 
ATOM     10  C   UNL     1      24.820  30.957   9.236  1.00  0.00     0.046 A 
ATOM     11  C   UNL     1      23.787  32.128   7.394  1.00  0.00     0.046 A 
ATOM     12  C   UNL     1      25.784  31.966   9.350  1.00  0.00    -0.047 A 
ATOM     13  C   UNL     1      24.723  33.162   7.514  1.00  0.00    -0.047 A 
ATOM     14  C   UNL     1      25.718  33.073   8.495  1.00  0.00     0.007 A 
ATOM     15  C   UNL     1      26.844  31.894  10.412  1.00  0.00     0.044 C 
ATOM     16  C   UNL     1      24.712  34.317   6.554  1.00  0.00     0.044 C 
ENDBRANCH   4   9
ENDBRANCH   1   3
BRANCH   1  17
ATOM     17  C   UNL     1      21.057  30.839  10.840  1.00  0.00     0.111 A 
ATOM     18  C   UNL     1      20.774  29.622  11.471  1.00  0.00     0.043 A 
ATOM     19  C   UNL     1      21.401  31.954  11.623  1.00  0.00     0.094 A 
ATOM     20  C   UNL     1      20.769  29.524  12.864  1.00  0.00     0.004 A 
ATOM     21  C   UNL     1      21.385  31.846  13.025  1.00  0.00     0.017 A 
ATOM     22  C   UNL     1      21.065  30.639  13.641  1.00  0.00     0.001 A 
BRANCH  19  23
ATOM     23  C   UNL     1      21.722  33.275  10.985  1.00  0.00     0.419 C 
ATOM     24  F   UNL     1      21.675  34.298  11.880  1.00  0.00    -0.166 F 
ATOM     25  F   UNL     1      22.942  33.330  10.395  1.00  0.00    -0.166 F 
ATOM     26  F   UNL     1      20.815  33.603  10.017  1.00  0.00    -0.166 F 
ENDBRANCH  19  23
ENDBRANCH   1  17
TORSDOF 4
ENDMDL
MODEL 9
REMARK VINA RESULT:    -5.285      8.264     10.210
REMARK INTER + INTRA:          -7.219
REMARK INTER:                  -6.414
REMARK INTRA:                  -0.804
REMARK UNBOUND:                -0.698
REMARK SMILES Cc1cc(C)cc(NC(N)=[NH+]c2ccccc2C(F)(F)F)c1
REMARK SMILES IDX 11 1 9 3 8 4 10 5 7 9 22 10 6 11 2 12 4 13 3 14 1 15 5 16
REMARK SMILES IDX 12 17 13 18 17 19 14 20 16 21 15 22 18 23 19 24 20 25 21 26
REMARK H PARENT 11 2 8 6 10 7 10 8
ROOT
ATOM      1  N   UNL     1      21.288  30.043   9.780  1.00  0.00    -0.245 N 
ATOM      2  H   UNL     1      20.736  29.472   9.141  1.00  0.00     0.267 HD
ENDROOT
BRANCH   1   3
ATOM      3  C   UNL     1      20.628  30.562  10.848  1.00  0.00     0.351 C 
ATOM      4  N   UNL     1      20.567  31.898  11.071  1.00  0.00    -0.245 N 
ATOM      5  N   UNL     1      20.003  29.776  11.746  1.00  0.00    -0.290 N 
ATOM      6  H   UNL     1      19.761  32.245  11.577  1.00  0.00     0.267 HD
ATOM      7  H   UNL     1      19.547  30.168  12.559  1.00  0.00     0.256 HD
ATOM      8  H   UNL     1      20.145  28.774  11.744  1.00  0.00     0.256 HD
BRANCH   4   9
ATOM      9  C   UNL     1      21.486  32.870  10.590  1.00  0.00     0.100 A 
ATOM     10  C   UNL     1      22.494  33.292  11.459  1.00  0.00     0.046 A 
ATOM     11  C   UNL     1      21.465  33.343   9.276  1.00  0.00     0.046 A 
ATOM     12  C   UNL     1      23.451  34.224  11.041  1.00  0.00    -0.047 A 
ATOM     13  C   UNL     1      22.393  34.300   8.850  1.00  0.00    -0.047 A 
ATOM     14  C   UNL     1      23.383  34.735   9.740  1.00  0.00     0.007 A 
ATOM     15  C   UNL     1      24.505  34.716  11.991  1.00  0.00     0.044 C 
ATOM     16  C   UNL     1      22.380  34.799   7.433  1.00  0.00     0.044 C 
ENDBRANCH   4   9
ENDBRANCH   1   3
BRANCH   1  17
ATOM     17  C   UNL     1      22.685  30.144   9.498  1.00  0.00     0.111 A 
ATOM     18  C   UNL     1      23.638  30.061  10.520  1.00  0.00     0.043 A 
ATOM     19  C   UNL     1      23.117  30.236   8.164  1.00  0.00     0.094 A 
ATOM     20  C   UNL     1      25.003  30.133  10.231  1.00  0.00     0.004 A 
ATOM     21  C   UNL     1      24.493  30.317   7.886  1.00  0.00     0.017 A 
ATOM     22  C   UNL     1      25.429  30.271   8.915  1.00  0.00     0.001 A 
BRANCH  19  23
ATOM     23  C   UNL     1      22.127  30.316   7.036  1.00  0.00     0.419 C 
ATOM     24  F   UNL     1      21.422  29.162   6.894  1.00  0.00    -0.166 F 
ATOM     25  F   UNL     1      21.220  31.316   7.158  1.00  0.00    -0.166 F 
ATOM     26  F   UNL     1      22.747  30.509   5.833  1.00  0.00    -0.166 F 
ENDBRANCH  19  23
ENDBRANCH   1  17
TORSDOF 4
ENDMDL
