MODEL 1
REMARK VINA RESULT:    -5.930      0.000      0.000
REMARK INTER + INTRA:          -7.526
REMARK INTER:                  -7.143
REMARK INTRA:                  -0.383
REMARK UNBOUND:                -0.383
REMARK SMILES Nc1ccc(S(=O)(=O)Nc2cnc3ccccc3n2)cc1
REMARK SMILES IDX 2 1 3 2 4 3 5 4 20 5 21 6 1 7 6 10 7 11 8 12 9 13 10 15
REMARK SMILES IDX 11 16 19 17 12 18 18 19 13 20 17 21 14 22 16 23 15 24
REMARK H PARENT 1 8 1 9 9 14
ROOT
ATOM      1  C   UNL     1      22.292  36.722  15.613  1.00  0.00     0.031 A 
ATOM      2  C   UNL     1      21.966  35.651  16.453  1.00  0.00     0.027 A 
ATOM      3  C   UNL     1      21.760  34.371  15.931  1.00  0.00     0.024 A 
ATOM      4  C   UNL     1      21.825  34.175  14.550  1.00  0.00     0.088 A 
ATOM      5  C   UNL     1      22.110  35.241  13.694  1.00  0.00     0.024 A 
ATOM      6  C   UNL     1      22.315  36.515  14.230  1.00  0.00     0.027 A 
ENDROOT
BRANCH   1   7
ATOM      7  N   UNL     1      22.377  38.020  16.130  1.00  0.00    -0.399 N 
ATOM      8  H   UNL     1      22.511  38.056  17.135  1.00  0.00     0.156 HD
ATOM      9  H   UNL     1      21.628  38.634  15.822  1.00  0.00     0.156 HD
ENDBRANCH   1   7
BRANCH   4  10
ATOM     10  S   UNL     1      21.562  32.554  13.868  1.00  0.00     0.263 S 
ATOM     11  O   UNL     1      22.841  32.076  13.386  1.00  0.00    -0.201 OA
ATOM     12  O   UNL     1      20.788  31.784  14.819  1.00  0.00    -0.201 OA
BRANCH  10  13
ATOM     13  N   UNL     1      20.614  32.847  12.510  1.00  0.00    -0.262 N 
ATOM     14  H   UNL     1      19.632  32.950  12.758  1.00  0.00     0.182 HD
BRANCH  13  15
ATOM     15  C   UNL     1      20.775  31.948  11.437  1.00  0.00     0.159 A 
ATOM     16  C   UNL     1      20.403  30.615  11.461  1.00  0.00     0.159 A 
ATOM     17  N   UNL     1      21.307  32.539  10.356  1.00  0.00    -0.227 NA
ATOM     18  N   UNL     1      20.540  29.816  10.378  1.00  0.00    -0.251 NA
ATOM     19  C   UNL     1      21.446  31.757   9.265  1.00  0.00     0.091 A 
ATOM     20  C   UNL     1      21.061  30.389   9.275  1.00  0.00     0.089 A 
ATOM     21  C   UNL     1      21.974  32.297   8.100  1.00  0.00     0.031 A 
ATOM     22  C   UNL     1      21.227  29.633   8.122  1.00  0.00     0.030 A 
ATOM     23  C   UNL     1      22.134  31.526   6.947  1.00  0.00     0.002 A 
ATOM     24  C   UNL     1      21.760  30.190   6.958  1.00  0.00     0.002 A 
ENDBRANCH  13  15
ENDBRANCH  10  13
ENDBRANCH   4  10
TORSDOF 4
ENDMDL
MODEL 2
REMARK VINA RESULT:    -5.929      2.454      6.704
REMARK INTER + INTRA:          -7.525
REMARK INTER:                  -7.178
REMARK INTRA:                  -0.347
REMARK UNBOUND:                -0.383
REMARK SMILES Nc1ccc(S(=O)(=O)Nc2cnc3ccccc3n2)cc1
REMARK SMILES IDX 2 1 3 2 4 3 5 4 20 5 21 6 1 7 6 10 7 11 8 12 9 13 10 15
REMARK SMILES IDX 11 16 19 17 12 18 18 19 13 20 17 21 14 22 16 23 15 24
REMARK H PARENT 1 8 1 9 9 14
ROOT
ATOM      1  C   UNL     1      22.754  33.883   7.549  1.00  0.00     0.031 A 
ATOM      2  C   UNL     1      22.625  32.518   7.276  1.00  0.00     0.027 A 
ATOM      3  C   UNL     1      21.998  31.662   8.188  1.00  0.00     0.024 A 
ATOM      4  C   UNL     1      21.549  32.172   9.408  1.00  0.00     0.088 A 
ATOM      5  C   UNL     1      21.707  33.525   9.713  1.00  0.00     0.024 A 
ATOM      6  C   UNL     1      22.333  34.368   8.792  1.00  0.00     0.027 A 
ENDROOT
BRANCH   1   7
ATOM      7  N   UNL     1      23.488  34.706   6.687  1.00  0.00    -0.399 N 
ATOM      8  H   UNL     1      24.197  34.215   6.152  1.00  0.00     0.156 HD
ATOM      9  H   UNL     1      23.855  35.543   7.131  1.00  0.00     0.156 HD
ENDBRANCH   1   7
BRANCH   4  10
ATOM     10  S   UNL     1      20.753  31.099  10.581  1.00  0.00     0.263 S 
ATOM     11  O   UNL     1      19.675  31.849  11.189  1.00  0.00    -0.201 OA
ATOM     12  O   UNL     1      20.506  29.826   9.934  1.00  0.00    -0.201 OA
BRANCH  10  13
ATOM     13  N   UNL     1      21.922  30.882  11.772  1.00  0.00    -0.262 N 
ATOM     14  H   UNL     1      22.238  29.915  11.810  1.00  0.00     0.182 HD
BRANCH  13  15
ATOM     15  C   UNL     1      21.593  31.360  13.055  1.00  0.00     0.159 A 
ATOM     16  C   UNL     1      21.022  30.598  14.061  1.00  0.00     0.159 A 
ATOM     17  N   UNL     1      21.927  32.651  13.217  1.00  0.00    -0.227 NA
ATOM     18  N   UNL     1      20.776  31.107  15.290  1.00  0.00    -0.251 NA
ATOM     19  C   UNL     1      21.692  33.172  14.439  1.00  0.00     0.091 A 
ATOM     20  C   UNL     1      21.114  32.397  15.481  1.00  0.00     0.089 A 
ATOM     21  C   UNL     1      22.024  34.496  14.692  1.00  0.00     0.031 A 
ATOM     22  C   UNL     1      20.897  32.988  16.719  1.00  0.00     0.030 A 
ATOM     23  C   UNL     1      21.801  35.077  15.942  1.00  0.00     0.002 A 
ATOM     24  C   UNL     1      21.235  34.321  16.958  1.00  0.00     0.002 A 
ENDBRANCH  13  15
ENDBRANCH  10  13
ENDBRANCH   4  10
TORSDOF 4
ENDMDL
MODEL 3
REMARK VINA RESULT:    -5.883      2.099      7.427
REMARK INTER + INTRA:          -7.470
REMARK INTER:                  -7.119
REMARK INTRA:                  -0.351
REMARK UNBOUND:                -0.383
REMARK SMILES Nc1ccc(S(=O)(=O)Nc2cnc3ccccc3n2)cc1
REMARK SMILES IDX 2 1 3 2 4 3 5 4 20 5 21 6 1 7 6 10 7 11 8 12 9 13 10 15
REMARK SMILES IDX 11 16 19 17 12 18 18 19 13 20 17 21 14 22 16 23 15 24
REMARK H PARENT 1 8 1 9 9 14
ROOT
ATOM      1  C   UNL     1      22.000  30.777   7.062  1.00  0.00     0.031 A 
ATOM      2  C   UNL     1      21.588  29.681   7.827  1.00  0.00     0.027 A 
ATOM      3  C   UNL     1      21.105  29.856   9.127  1.00  0.00     0.024 A 
ATOM      4  C   UNL     1      21.090  31.135   9.685  1.00  0.00     0.088 A 
ATOM      5  C   UNL     1      21.536  32.236   8.951  1.00  0.00     0.024 A 
ATOM      6  C   UNL     1      22.014  32.046   7.652  1.00  0.00     0.027 A 
ENDROOT
BRANCH   1   7
ATOM      7  N   UNL     1      22.594  30.579   5.811  1.00  0.00    -0.399 N 
ATOM      8  H   UNL     1      22.250  31.202   5.087  1.00  0.00     0.156 HD
ATOM      9  H   UNL     1      22.601  29.609   5.509  1.00  0.00     0.156 HD
ENDBRANCH   1   7
BRANCH   4  10
ATOM     10  S   UNL     1      20.482  31.377  11.339  1.00  0.00     0.263 S 
ATOM     11  O   UNL     1      19.607  32.530  11.313  1.00  0.00    -0.201 OA
ATOM     12  O   UNL     1      20.020  30.100  11.841  1.00  0.00    -0.201 OA
BRANCH  10  13
ATOM     13  N   UNL     1      21.855  31.832  12.200  1.00  0.00    -0.262 N 
ATOM     14  H   UNL     1      22.489  31.047  12.328  1.00  0.00     0.182 HD
BRANCH  13  15
ATOM     15  C   UNL     1      21.627  32.505  13.416  1.00  0.00     0.159 A 
ATOM     16  C   UNL     1      21.067  31.931  14.544  1.00  0.00     0.159 A 
ATOM     17  N   UNL     1      22.047  33.780  13.377  1.00  0.00    -0.227 NA
ATOM     18  N   UNL     1      20.920  32.621  15.699  1.00  0.00    -0.251 NA
ATOM     19  C   UNL     1      21.912  34.480  14.522  1.00  0.00     0.091 A 
ATOM     20  C   UNL     1      21.346  33.899  15.689  1.00  0.00     0.089 A 
ATOM     21  C   UNL     1      22.338  35.801  14.569  1.00  0.00     0.031 A 
ATOM     22  C   UNL     1      21.234  34.668  16.839  1.00  0.00     0.030 A 
ATOM     23  C   UNL     1      22.220  36.563  15.732  1.00  0.00     0.002 A 
ATOM     24  C   UNL     1      21.665  35.996  16.871  1.00  0.00     0.002 A 
ENDBRANCH  13  15
ENDBRANCH  10  13
ENDBRANCH   4  10
TORSDOF 4
ENDMDL
MODEL 4
REMARK VINA RESULT:    -5.572      2.668      6.513
REMARK INTER + INTRA:          -7.095
REMARK INTER:                  -6.925
REMARK INTRA:                  -0.170
REMARK UNBOUND:                -0.383
REMARK SMILES Nc1ccc(S(=O)(=O)Nc2cnc3ccccc3n2)cc1
REMARK SMILES IDX 2 1 3 2 4 3 5 4 20 5 21 6 1 7 6 10 7 11 8 12 9 13 10 15
REMARK SMILES IDX 11 16 19 17 12 18 18 19 13 20 17 21 14 22 16 23 15 24
REMARK H PARENT 1 8 1 9 9 14
ROOT
ATOM      1  C   UNL     1      23.161  34.242   7.344  1.00  0.00     0.031 A 
ATOM      2  C   UNL     1      22.301  34.438   8.429  1.00  0.00     0.027 A 
ATOM      3  C   UNL     1      21.811  33.351   9.159  1.00  0.00     0.024 A 
ATOM      4  C   UNL     1      22.141  32.054   8.762  1.00  0.00     0.088 A 
ATOM      5  C   UNL     1      22.966  31.839   7.655  1.00  0.00     0.024 A 
ATOM      6  C   UNL     1      23.449  32.936   6.936  1.00  0.00     0.027 A 
ENDROOT
BRANCH   1   7
ATOM      7  N   UNL     1      23.546  35.327   6.548  1.00  0.00    -0.399 N 
ATOM      8  H   UNL     1      22.955  35.473   5.735  1.00  0.00     0.156 HD
ATOM      9  H   UNL     1      24.534  35.330   6.309  1.00  0.00     0.156 HD
ENDBRANCH   1   7
BRANCH   4  10
ATOM     10  S   UNL     1      21.525  30.659   9.676  1.00  0.00     0.263 S 
ATOM     11  O   UNL     1      20.816  29.810   8.741  1.00  0.00    -0.201 OA
ATOM     12  O   UNL     1      22.605  30.138  10.487  1.00  0.00    -0.201 OA
BRANCH  10  13
ATOM     13  N   UNL     1      20.364  31.334  10.690  1.00  0.00    -0.262 N 
ATOM     14  H   UNL     1      20.091  32.262  10.375  1.00  0.00     0.182 HD
BRANCH  13  15
ATOM     15  C   UNL     1      20.669  31.334  12.065  1.00  0.00     0.159 A 
ATOM     16  C   UNL     1      20.756  30.200  12.855  1.00  0.00     0.159 A 
ATOM     17  N   UNL     1      20.903  32.570  12.534  1.00  0.00    -0.227 NA
ATOM     18  N   UNL     1      21.102  30.264  14.161  1.00  0.00    -0.251 NA
ATOM     19  C   UNL     1      21.254  32.650  13.834  1.00  0.00     0.091 A 
ATOM     20  C   UNL     1      21.354  31.492  14.653  1.00  0.00     0.089 A 
ATOM     21  C   UNL     1      21.530  33.892  14.392  1.00  0.00     0.031 A 
ATOM     22  C   UNL     1      21.721  31.637  15.984  1.00  0.00     0.030 A 
ATOM     23  C   UNL     1      21.899  34.023  15.731  1.00  0.00     0.002 A 
ATOM     24  C   UNL     1      21.994  32.893  16.531  1.00  0.00     0.002 A 
ENDBRANCH  13  15
ENDBRANCH  10  13
ENDBRANCH   4  10
TORSDOF 4
ENDMDL
MODEL 5
REMARK VINA RESULT:    -5.490      1.600      2.385
REMARK INTER + INTRA:          -6.997
REMARK INTER:                  -6.738
REMARK INTRA:                  -0.259
REMARK UNBOUND:                -0.383
REMARK SMILES Nc1ccc(S(=O)(=O)Nc2cnc3ccccc3n2)cc1
REMARK SMILES IDX 2 1 3 2 4 3 5 4 20 5 21 6 1 7 6 10 7 11 8 12 9 13 10 15
REMARK SMILES IDX 11 16 19 17 12 18 18 19 13 20 17 21 14 22 16 23 15 24
REMARK H PARENT 1 8 1 9 9 14
ROOT
ATOM      1  C   UNL     1      21.758  34.438  15.286  1.00  0.00     0.031 A 
ATOM      2  C   UNL     1      20.978  33.390  15.786  1.00  0.00     0.027 A 
ATOM      3  C   UNL     1      20.784  32.223  15.042  1.00  0.00     0.024 A 
ATOM      4  C   UNL     1      21.331  32.129  13.761  1.00  0.00     0.088 A 
ATOM      5  C   UNL     1      22.079  33.182  13.229  1.00  0.00     0.024 A 
ATOM      6  C   UNL     1      22.265  34.342  13.986  1.00  0.00     0.027 A 
ENDROOT
BRANCH   1   7
ATOM      7  N   UNL     1      21.845  35.646  15.985  1.00  0.00    -0.399 N 
ATOM      8  H   UNL     1      21.596  35.574  16.967  1.00  0.00     0.156 HD
ATOM      9  H   UNL     1      21.374  36.421  15.527  1.00  0.00     0.156 HD
ENDBRANCH   1   7
BRANCH   4  10
ATOM     10  S   UNL     1      21.092  30.654  12.797  1.00  0.00     0.263 S 
ATOM     11  O   UNL     1      22.370  30.312  12.208  1.00  0.00    -0.201 OA
ATOM     12  O   UNL     1      20.364  29.699  13.606  1.00  0.00    -0.201 OA
BRANCH  10  13
ATOM     13  N   UNL     1      20.100  31.163  11.537  1.00  0.00    -0.262 N 
ATOM     14  H   UNL     1      19.268  30.582  11.462  1.00  0.00     0.182 HD
BRANCH  13  15
ATOM     15  C   UNL     1      20.724  31.320  10.284  1.00  0.00     0.159 A 
ATOM     16  C   UNL     1      21.271  32.503   9.816  1.00  0.00     0.159 A 
ATOM     17  N   UNL     1      20.762  30.172   9.588  1.00  0.00    -0.227 NA
ATOM     18  N   UNL     1      21.901  32.574   8.621  1.00  0.00    -0.251 NA
ATOM     19  C   UNL     1      21.391  30.226   8.396  1.00  0.00     0.091 A 
ATOM     20  C   UNL     1      21.963  31.433   7.909  1.00  0.00     0.089 A 
ATOM     21  C   UNL     1      21.487  29.077   7.622  1.00  0.00     0.031 A 
ATOM     22  C   UNL     1      22.600  31.427   6.675  1.00  0.00     0.030 A 
ATOM     23  C   UNL     1      22.131  29.085   6.383  1.00  0.00     0.002 A 
ATOM     24  C   UNL     1      22.688  30.264   5.907  1.00  0.00     0.002 A 
ENDBRANCH  13  15
ENDBRANCH  10  13
ENDBRANCH   4  10
TORSDOF 4
ENDMDL
MODEL 6
REMARK VINA RESULT:    -5.434      2.885      4.025
REMARK INTER + INTRA:          -6.929
REMARK INTER:                  -6.538
REMARK INTRA:                  -0.391
REMARK UNBOUND:                -0.383
REMARK SMILES Nc1ccc(S(=O)(=O)Nc2cnc3ccccc3n2)cc1
REMARK SMILES IDX 2 1 3 2 4 3 5 4 20 5 21 6 1 7 6 10 7 11 8 12 9 13 10 15
REMARK SMILES IDX 11 16 19 17 12 18 18 19 13 20 17 21 14 22 16 23 15 24
REMARK H PARENT 1 8 1 9 9 14
ROOT
ATOM      1  C   UNL     1      21.614  32.739  15.905  1.00  0.00     0.031 A 
ATOM      2  C   UNL     1      21.478  33.680  14.878  1.00  0.00     0.027 A 
ATOM      3  C   UNL     1      21.129  33.281  13.585  1.00  0.00     0.024 A 
ATOM      4  C   UNL     1      20.971  31.922  13.306  1.00  0.00     0.088 A 
ATOM      5  C   UNL     1      21.142  30.966  14.310  1.00  0.00     0.024 A 
ATOM      6  C   UNL     1      21.490  31.380  15.599  1.00  0.00     0.027 A 
ENDROOT
BRANCH   1   7
ATOM      7  N   UNL     1      22.081  33.135  17.163  1.00  0.00    -0.399 N 
ATOM      8  H   UNL     1      21.646  32.644  17.938  1.00  0.00     0.156 HD
ATOM      9  H   UNL     1      22.086  34.142  17.302  1.00  0.00     0.156 HD
ENDBRANCH   1   7
BRANCH   4  10
ATOM     10  S   UNL     1      20.531  31.395  11.666  1.00  0.00     0.263 S 
ATOM     11  O   UNL     1      20.034  30.038  11.767  1.00  0.00    -0.201 OA
ATOM     12  O   UNL     1      19.733  32.438  11.055  1.00  0.00    -0.201 OA
BRANCH  10  13
ATOM     13  N   UNL     1      22.010  31.309  10.869  1.00  0.00    -0.262 N 
ATOM     14  H   UNL     1      22.787  31.352  11.524  1.00  0.00     0.182 HD
BRANCH  13  15
ATOM     15  C   UNL     1      22.193  32.213   9.804  1.00  0.00     0.159 A 
ATOM     16  C   UNL     1      21.806  31.981   8.495  1.00  0.00     0.159 A 
ATOM     17  N   UNL     1      22.764  33.360  10.205  1.00  0.00    -0.227 NA
ATOM     18  N   UNL     1      21.966  32.912   7.528  1.00  0.00    -0.251 NA
ATOM     19  C   UNL     1      22.926  34.301   9.252  1.00  0.00     0.091 A 
ATOM     20  C   UNL     1      22.525  34.078   7.907  1.00  0.00     0.089 A 
ATOM     21  C   UNL     1      23.494  35.523   9.589  1.00  0.00     0.031 A 
ATOM     22  C   UNL     1      22.716  35.085   6.970  1.00  0.00     0.030 A 
ATOM     23  C   UNL     1      23.680  36.527   8.637  1.00  0.00     0.002 A 
ATOM     24  C   UNL     1      23.290  36.307   7.323  1.00  0.00     0.002 A 
ENDBRANCH  13  15
ENDBRANCH  10  13
ENDBRANCH   4  10
TORSDOF 4
ENDMDL
MODEL 7
REMARK VINA RESULT:    -5.371      2.388      3.374
REMARK INTER + INTRA:          -6.853
REMARK INTER:                  -6.487
REMARK INTRA:                  -0.366
REMARK UNBOUND:                -0.383
REMARK SMILES Nc1ccc(S(=O)(=O)Nc2cnc3ccccc3n2)cc1
REMARK SMILES IDX 2 1 3 2 4 3 5 4 20 5 21 6 1 7 6 10 7 11 8 12 9 13 10 15
REMARK SMILES IDX 11 16 19 17 12 18 18 19 13 20 17 21 14 22 16 23 15 24
REMARK H PARENT 1 8 1 9 9 14
ROOT
ATOM      1  C   UNL     1      22.388  38.810  14.505  1.00  0.00     0.031 A 
ATOM      2  C   UNL     1      22.534  37.716  13.646  1.00  0.00     0.027 A 
ATOM      3  C   UNL     1      22.474  36.408  14.137  1.00  0.00     0.024 A 
ATOM      4  C   UNL     1      22.322  36.198  15.508  1.00  0.00     0.088 A 
ATOM      5  C   UNL     1      22.215  37.279  16.385  1.00  0.00     0.024 A 
ATOM      6  C   UNL     1      22.276  38.581  15.880  1.00  0.00     0.027 A 
ENDROOT
BRANCH   1   7
ATOM      7  N   UNL     1      22.572  40.111  14.024  1.00  0.00    -0.399 N 
ATOM      8  H   UNL     1      22.433  40.204  13.022  1.00  0.00     0.156 HD
ATOM      9  H   UNL     1      23.437  40.545  14.333  1.00  0.00     0.156 HD
ENDBRANCH   1   7
BRANCH   4  10
ATOM     10  S   UNL     1      22.246  34.542  16.152  1.00  0.00     0.263 S 
ATOM     11  O   UNL     1      23.276  33.772  15.485  1.00  0.00    -0.201 OA
ATOM     12  O   UNL     1      22.190  34.620  17.597  1.00  0.00    -0.201 OA
BRANCH  10  13
ATOM     13  N   UNL     1      20.770  33.966  15.584  1.00  0.00    -0.262 N 
ATOM     14  H   UNL     1      20.106  33.836  16.344  1.00  0.00     0.182 HD
BRANCH  13  15
ATOM     15  C   UNL     1      20.827  32.826  14.758  1.00  0.00     0.159 A 
ATOM     16  C   UNL     1      20.843  31.519  15.215  1.00  0.00     0.159 A 
ATOM     17  N   UNL     1      20.832  33.144  13.454  1.00  0.00    -0.227 NA
ATOM     18  N   UNL     1      20.849  30.466  14.366  1.00  0.00    -0.251 NA
ATOM     19  C   UNL     1      20.833  32.105  12.594  1.00  0.00     0.091 A 
ATOM     20  C   UNL     1      20.842  30.759  13.051  1.00  0.00     0.089 A 
ATOM     21  C   UNL     1      20.822  32.350  11.227  1.00  0.00     0.031 A 
ATOM     22  C   UNL     1      20.841  29.730  12.118  1.00  0.00     0.030 A 
ATOM     23  C   UNL     1      20.820  31.306  10.300  1.00  0.00     0.002 A 
ATOM     24  C   UNL     1      20.830  29.992  10.747  1.00  0.00     0.002 A 
ENDBRANCH  13  15
ENDBRANCH  10  13
ENDBRANCH   4  10
TORSDOF 4
ENDMDL
MODEL 8
REMARK VINA RESULT:    -5.369      4.896      6.155
REMARK INTER + INTRA:          -6.851
REMARK INTER:                  -6.535
REMARK INTRA:                  -0.316
REMARK UNBOUND:                -0.383
REMARK SMILES Nc1ccc(S(=O)(=O)Nc2cnc3ccccc3n2)cc1
REMARK SMILES IDX 2 1 3 2 4 3 5 4 20 5 21 6 1 7 6 10 7 11 8 12 9 13 10 15
REMARK SMILES IDX 11 16 19 17 12 18 18 19 13 20 17 21 14 22 16 23 15 24
REMARK H PARENT 1 8 1 9 9 14
ROOT
ATOM      1  C   UNL     1      22.900  40.131   7.739  1.00  0.00     0.031 A 
ATOM      2  C   UNL     1      23.780  39.646   8.712  1.00  0.00     0.027 A 
ATOM      3  C   UNL     1      24.134  38.294   8.748  1.00  0.00     0.024 A 
ATOM      4  C   UNL     1      23.555  37.411   7.834  1.00  0.00     0.088 A 
ATOM      5  C   UNL     1      22.643  37.871   6.882  1.00  0.00     0.024 A 
ATOM      6  C   UNL     1      22.301  39.225   6.858  1.00  0.00     0.027 A 
ENDROOT
BRANCH   1   7
ATOM      7  N   UNL     1      22.460  41.458   7.788  1.00  0.00    -0.399 N 
ATOM      8  H   UNL     1      21.539  41.603   7.386  1.00  0.00     0.156 HD
ATOM      9  H   UNL     1      23.139  42.130   7.441  1.00  0.00     0.156 HD
ENDBRANCH   1   7
BRANCH   4  10
ATOM     10  S   UNL     1      23.990  35.687   7.866  1.00  0.00     0.263 S 
ATOM     11  O   UNL     1      24.978  35.472   6.829  1.00  0.00    -0.201 OA
ATOM     12  O   UNL     1      24.255  35.313   9.240  1.00  0.00    -0.201 OA
BRANCH  10  13
ATOM     13  N   UNL     1      22.582  34.917   7.358  1.00  0.00    -0.262 N 
ATOM     14  H   UNL     1      21.769  35.517   7.473  1.00  0.00     0.182 HD
BRANCH  13  15
ATOM     15  C   UNL     1      22.350  33.636   7.897  1.00  0.00     0.159 A 
ATOM     16  C   UNL     1      22.896  32.462   7.408  1.00  0.00     0.159 A 
ATOM     17  N   UNL     1      21.551  33.677   8.976  1.00  0.00    -0.227 NA
ATOM     18  N   UNL     1      22.671  31.268   8.003  1.00  0.00    -0.251 NA
ATOM     19  C   UNL     1      21.321  32.495   9.584  1.00  0.00     0.091 A 
ATOM     20  C   UNL     1      21.883  31.284   9.096  1.00  0.00     0.089 A 
ATOM     21  C   UNL     1      20.519  32.454  10.716  1.00  0.00     0.031 A 
ATOM     22  C   UNL     1      21.612  30.097   9.764  1.00  0.00     0.030 A 
ATOM     23  C   UNL     1      20.255  31.254  11.379  1.00  0.00     0.002 A 
ATOM     24  C   UNL     1      20.802  30.071  10.901  1.00  0.00     0.002 A 
ENDBRANCH  13  15
ENDBRANCH  10  13
ENDBRANCH   4  10
TORSDOF 4
ENDMDL
MODEL 9
REMARK VINA RESULT:    -4.901      2.104      7.492
REMARK INTER + INTRA:          -6.287
REMARK INTER:                  -5.990
REMARK INTRA:                  -0.296
REMARK UNBOUND:                -0.383
REMARK SMILES Nc1ccc(S(=O)(=O)Nc2cnc3ccccc3n2)cc1
REMARK SMILES IDX 2 1 3 2 4 3 5 4 20 5 21 6 1 7 6 10 7 11 8 12 9 13 10 15
REMARK SMILES IDX 11 16 19 17 12 18 18 19 13 20 17 21 14 22 16 23 15 24
REMARK H PARENT 1 8 1 9 9 14
ROOT
ATOM      1  C   UNL     1      21.587  29.688   8.139  1.00  0.00     0.031 A 
ATOM      2  C   UNL     1      22.536  30.659   7.803  1.00  0.00     0.027 A 
ATOM      3  C   UNL     1      22.852  31.689   8.693  1.00  0.00     0.024 A 
ATOM      4  C   UNL     1      22.168  31.779   9.908  1.00  0.00     0.088 A 
ATOM      5  C   UNL     1      21.189  30.841  10.242  1.00  0.00     0.024 A 
ATOM      6  C   UNL     1      20.885  29.816   9.342  1.00  0.00     0.027 A 
ENDROOT
BRANCH   1   7
ATOM      7  N   UNL     1      21.192  28.734   7.194  1.00  0.00    -0.399 N 
ATOM      8  H   UNL     1      20.189  28.696   7.042  1.00  0.00     0.156 HD
ATOM      9  H   UNL     1      21.591  27.813   7.348  1.00  0.00     0.156 HD
ENDBRANCH   1   7
BRANCH   4  10
ATOM     10  S   UNL     1      22.554  33.084  11.051  1.00  0.00     0.263 S 
ATOM     11  O   UNL     1      23.553  32.575  11.967  1.00  0.00    -0.201 OA
ATOM     12  O   UNL     1      22.785  34.296  10.293  1.00  0.00    -0.201 OA
BRANCH  10  13
ATOM     13  N   UNL     1      21.134  33.264  11.937  1.00  0.00    -0.262 N 
ATOM     14  H   UNL     1      20.715  34.178  11.785  1.00  0.00     0.182 HD
BRANCH  13  15
ATOM     15  C   UNL     1      21.222  32.968  13.312  1.00  0.00     0.159 A 
ATOM     16  C   UNL     1      21.107  31.700  13.856  1.00  0.00     0.159 A 
ATOM     17  N   UNL     1      21.464  34.061  14.052  1.00  0.00    -0.227 NA
ATOM     18  N   UNL     1      21.250  31.476  15.183  1.00  0.00    -0.251 NA
ATOM     19  C   UNL     1      21.614  33.855  15.377  1.00  0.00     0.091 A 
ATOM     20  C   UNL     1      21.507  32.556  15.946  1.00  0.00     0.089 A 
ATOM     21  C   UNL     1      21.884  34.932  16.210  1.00  0.00     0.031 A 
ATOM     22  C   UNL     1      21.672  32.405  17.316  1.00  0.00     0.030 A 
ATOM     23  C   UNL     1      22.048  34.766  17.586  1.00  0.00     0.002 A 
ATOM     24  C   UNL     1      21.941  33.498  18.141  1.00  0.00     0.002 A 
ENDBRANCH  13  15
ENDBRANCH  10  13
ENDBRANCH   4  10
TORSDOF 4
ENDMDL
