MODEL 1
REMARK VINA RESULT:    -5.934      0.000      0.000
REMARK INTER + INTRA:          -7.278
REMARK INTER:                  -6.975
REMARK INTRA:                  -0.303
REMARK UNBOUND:                -0.303
REMARK SMILES Cc1nc2[nH]ccc2c(=NCc2ccccc2)[nH]1
REMARK SMILES IDX 10 1 9 2 18 3 2 4 3 5 8 6 4 7 7 8 5 9 6 10 1 12 11 14 12 15
REMARK SMILES IDX 13 16 17 17 14 18 16 19 15 20
REMARK H PARENT 18 11 5 13
ROOT
ATOM      1  N   UNL     1      22.361  33.259   8.034  1.00  0.00    -0.263 NA
ENDROOT
BRANCH   1   2
ATOM      2  C   UNL     1      21.885  32.105   8.336  1.00  0.00     0.137 A 
ATOM      3  N   UNL     1      21.375  31.853   9.586  1.00  0.00    -0.328 N 
ATOM      4  C   UNL     1      20.833  30.670  10.054  1.00  0.00     0.106 A 
ATOM      5  N   UNL     1      20.730  29.585   9.332  1.00  0.00    -0.217 NA
ATOM      6  C   UNL     1      21.782  30.907   7.510  1.00  0.00     0.061 A 
ATOM      7  C   UNL     1      21.220  29.769   8.079  1.00  0.00     0.143 A 
ATOM      8  C   UNL     1      22.126  30.555   6.178  1.00  0.00     0.033 A 
ATOM      9  N   UNL     1      21.218  28.771   7.148  1.00  0.00    -0.346 N 
ATOM     10  C   UNL     1      21.768  29.236   5.982  1.00  0.00     0.085 A 
ATOM     11  H   UNL     1      21.418  32.648  10.207  1.00  0.00     0.169 HD
ATOM     12  C   UNL     1      20.335  30.641  11.475  1.00  0.00     0.087 C 
ATOM     13  H   UNL     1      20.859  27.842   7.317  1.00  0.00     0.167 HD
ENDBRANCH   1   2
BRANCH   1  14
ATOM     14  C   UNL     1      23.139  34.039   8.977  1.00  0.00     0.180 C 
BRANCH  14  15
ATOM     15  C   UNL     1      23.290  35.463   8.491  1.00  0.00    -0.027 A 
ATOM     16  C   UNL     1      23.956  36.416   9.276  1.00  0.00     0.005 A 
ATOM     17  C   UNL     1      22.730  35.861   7.270  1.00  0.00     0.005 A 
ATOM     18  C   UNL     1      24.083  37.733   8.833  1.00  0.00     0.000 A 
ATOM     19  C   UNL     1      22.858  37.179   6.828  1.00  0.00     0.000 A 
ATOM     20  C   UNL     1      23.538  38.114   7.607  1.00  0.00     0.000 A 
ENDBRANCH  14  15
ENDBRANCH   1  14
TORSDOF 3
ENDMDL
MODEL 2
REMARK VINA RESULT:    -5.679      3.766      6.813
REMARK INTER + INTRA:          -6.977
REMARK INTER:                  -6.528
REMARK INTRA:                  -0.449
REMARK UNBOUND:                -0.303
REMARK SMILES Cc1nc2[nH]ccc2c(=NCc2ccccc2)[nH]1
REMARK SMILES IDX 10 1 9 2 18 3 2 4 3 5 8 6 4 7 7 8 5 9 6 10 1 12 11 14 12 15
REMARK SMILES IDX 13 16 17 17 14 18 16 19 15 20
REMARK H PARENT 18 11 5 13
ROOT
ATOM      1  N   UNL     1      20.752  33.227  11.664  1.00  0.00    -0.263 NA
ENDROOT
BRANCH   1   2
ATOM      2  C   UNL     1      21.164  33.517  12.846  1.00  0.00     0.137 A 
ATOM      3  N   UNL     1      21.547  34.796  13.169  1.00  0.00    -0.328 N 
ATOM      4  C   UNL     1      22.008  35.257  14.389  1.00  0.00     0.106 A 
ATOM      5  N   UNL     1      22.146  34.498  15.445  1.00  0.00    -0.217 NA
ATOM      6  C   UNL     1      21.309  32.650  14.009  1.00  0.00     0.061 A 
ATOM      7  C   UNL     1      21.782  33.215  15.189  1.00  0.00     0.143 A 
ATOM      8  C   UNL     1      21.082  31.276  14.291  1.00  0.00     0.033 A 
ATOM      9  N   UNL     1      21.843  32.243  16.145  1.00  0.00    -0.346 N 
ATOM     10  C   UNL     1      21.418  31.054  15.612  1.00  0.00     0.085 A 
ATOM     11  H   UNL     1      21.468  35.447  12.401  1.00  0.00     0.169 HD
ATOM     12  C   UNL     1      22.368  36.715  14.497  1.00  0.00     0.087 C 
ATOM     13  H   UNL     1      22.155  32.401  17.093  1.00  0.00     0.167 HD
ENDBRANCH   1   2
BRANCH   1  14
ATOM     14  C   UNL     1      21.595  33.393  10.495  1.00  0.00     0.180 C 
BRANCH  14  15
ATOM     15  C   UNL     1      21.489  32.188   9.589  1.00  0.00    -0.027 A 
ATOM     16  C   UNL     1      21.099  30.943  10.104  1.00  0.00     0.005 A 
ATOM     17  C   UNL     1      21.819  32.287   8.231  1.00  0.00     0.005 A 
ATOM     18  C   UNL     1      21.014  29.827   9.271  1.00  0.00     0.000 A 
ATOM     19  C   UNL     1      21.734  31.170   7.398  1.00  0.00     0.000 A 
ATOM     20  C   UNL     1      21.328  29.941   7.917  1.00  0.00     0.000 A 
ENDBRANCH  14  15
ENDBRANCH   1  14
TORSDOF 3
ENDMDL
MODEL 3
REMARK VINA RESULT:    -5.509      3.756      6.745
REMARK INTER + INTRA:          -6.778
REMARK INTER:                  -6.272
REMARK INTRA:                  -0.505
REMARK UNBOUND:                -0.303
REMARK SMILES Cc1nc2[nH]ccc2c(=NCc2ccccc2)[nH]1
REMARK SMILES IDX 10 1 9 2 18 3 2 4 3 5 8 6 4 7 7 8 5 9 6 10 1 12 11 14 12 15
REMARK SMILES IDX 13 16 17 17 14 18 16 19 15 20
REMARK H PARENT 18 11 5 13
ROOT
ATOM      1  N   UNL     1      21.525  30.754  12.424  1.00  0.00    -0.263 NA
ENDROOT
BRANCH   1   2
ATOM      2  C   UNL     1      21.565  31.476  13.485  1.00  0.00     0.137 A 
ATOM      3  N   UNL     1      21.537  30.903  14.734  1.00  0.00    -0.328 N 
ATOM      4  C   UNL     1      21.575  31.544  15.958  1.00  0.00     0.106 A 
ATOM      5  N   UNL     1      21.645  32.843  16.094  1.00  0.00    -0.217 NA
ATOM      6  C   UNL     1      21.644  32.927  13.610  1.00  0.00     0.061 A 
ATOM      7  C   UNL     1      21.676  33.471  14.890  1.00  0.00     0.143 A 
ATOM      8  C   UNL     1      21.701  34.025  12.712  1.00  0.00     0.033 A 
ATOM      9  N   UNL     1      21.749  34.829  14.785  1.00  0.00    -0.346 N 
ATOM     10  C   UNL     1      21.765  35.183  13.462  1.00  0.00     0.085 A 
ATOM     11  H   UNL     1      21.483  29.895  14.713  1.00  0.00     0.169 HD
ATOM     12  C   UNL     1      21.532  30.691  17.199  1.00  0.00     0.087 C 
ATOM     13  H   UNL     1      21.785  35.456  15.577  1.00  0.00     0.167 HD
ENDBRANCH   1   2
BRANCH   1  14
ATOM     14  C   UNL     1      20.419  30.827  11.488  1.00  0.00     0.180 C 
BRANCH  14  15
ATOM     15  C   UNL     1      20.930  30.982  10.074  1.00  0.00    -0.027 A 
ATOM     16  C   UNL     1      20.997  29.874   9.216  1.00  0.00     0.005 A 
ATOM     17  C   UNL     1      21.384  32.225   9.613  1.00  0.00     0.005 A 
ATOM     18  C   UNL     1      21.483  30.014   7.915  1.00  0.00     0.000 A 
ATOM     19  C   UNL     1      21.869  32.364   8.311  1.00  0.00     0.000 A 
ATOM     20  C   UNL     1      21.914  31.260   7.462  1.00  0.00     0.000 A 
ENDBRANCH  14  15
ENDBRANCH   1  14
TORSDOF 3
ENDMDL
MODEL 4
REMARK VINA RESULT:    -5.488      3.077      5.460
REMARK INTER + INTRA:          -6.754
REMARK INTER:                  -6.106
REMARK INTRA:                  -0.647
REMARK UNBOUND:                -0.303
REMARK SMILES Cc1nc2[nH]ccc2c(=NCc2ccccc2)[nH]1
REMARK SMILES IDX 10 1 9 2 18 3 2 4 3 5 8 6 4 7 7 8 5 9 6 10 1 12 11 14 12 15
REMARK SMILES IDX 13 16 17 17 14 18 16 19 15 20
REMARK H PARENT 18 11 5 13
ROOT
ATOM      1  N   UNL     1      20.858  33.229  10.286  1.00  0.00    -0.263 NA
ENDROOT
BRANCH   1   2
ATOM      2  C   UNL     1      21.032  32.874  11.508  1.00  0.00     0.137 A 
ATOM      3  N   UNL     1      21.418  33.783  12.462  1.00  0.00    -0.328 N 
ATOM      4  C   UNL     1      21.642  33.552  13.807  1.00  0.00     0.106 A 
ATOM      5  N   UNL     1      21.510  32.381  14.373  1.00  0.00    -0.217 NA
ATOM      6  C   UNL     1      20.877  31.557  12.116  1.00  0.00     0.061 A 
ATOM      7  C   UNL     1      21.128  31.434  13.478  1.00  0.00     0.143 A 
ATOM      8  C   UNL     1      20.511  30.262  11.661  1.00  0.00     0.033 A 
ATOM      9  N   UNL     1      20.927  30.134  13.843  1.00  0.00    -0.346 N 
ATOM     10  C   UNL     1      20.550  29.407  12.745  1.00  0.00     0.085 A 
ATOM     11  H   UNL     1      21.542  34.718  12.101  1.00  0.00     0.169 HD
ATOM     12  C   UNL     1      22.063  34.721  14.659  1.00  0.00     0.087 C 
ATOM     13  H   UNL     1      21.045  29.787  14.785  1.00  0.00     0.167 HD
ENDBRANCH   1   2
BRANCH   1  14
ATOM     14  C   UNL     1      21.967  33.365   9.361  1.00  0.00     0.180 C 
BRANCH  14  15
ATOM     15  C   UNL     1      22.174  32.082   8.588  1.00  0.00    -0.027 A 
ATOM     16  C   UNL     1      23.004  31.072   9.096  1.00  0.00     0.005 A 
ATOM     17  C   UNL     1      21.573  31.902   7.335  1.00  0.00     0.005 A 
ATOM     18  C   UNL     1      23.206  29.894   8.376  1.00  0.00     0.000 A 
ATOM     19  C   UNL     1      21.776  30.722   6.616  1.00  0.00     0.000 A 
ATOM     20  C   UNL     1      22.588  29.717   7.138  1.00  0.00     0.000 A 
ENDBRANCH  14  15
ENDBRANCH   1  14
TORSDOF 3
ENDMDL
MODEL 5
REMARK VINA RESULT:    -5.414      3.822      6.474
REMARK INTER + INTRA:          -6.667
REMARK INTER:                  -5.975
REMARK INTRA:                  -0.692
REMARK UNBOUND:                -0.303
REMARK SMILES Cc1nc2[nH]ccc2c(=NCc2ccccc2)[nH]1
REMARK SMILES IDX 10 1 9 2 18 3 2 4 3 5 8 6 4 7 7 8 5 9 6 10 1 12 11 14 12 15
REMARK SMILES IDX 13 16 17 17 14 18 16 19 15 20
REMARK H PARENT 18 11 5 13
ROOT
ATOM      1  N   UNL     1      20.616  33.126  12.222  1.00  0.00    -0.263 NA
ENDROOT
BRANCH   1   2
ATOM      2  C   UNL     1      21.072  32.837  13.387  1.00  0.00     0.137 A 
ATOM      3  N   UNL     1      20.539  33.406  14.518  1.00  0.00    -0.328 N 
ATOM      4  C   UNL     1      20.920  33.195  15.830  1.00  0.00     0.106 A 
ATOM      5  N   UNL     1      21.885  32.386  16.183  1.00  0.00    -0.217 NA
ATOM      6  C   UNL     1      22.152  31.929  13.755  1.00  0.00     0.061 A 
ATOM      7  C   UNL     1      22.456  31.789  15.104  1.00  0.00     0.143 A 
ATOM      8  C   UNL     1      23.052  31.080  13.056  1.00  0.00     0.033 A 
ATOM      9  N   UNL     1      23.486  30.902  15.230  1.00  0.00    -0.346 N 
ATOM     10  C   UNL     1      23.860  30.461  13.989  1.00  0.00     0.085 A 
ATOM     11  H   UNL     1      19.782  34.048  14.328  1.00  0.00     0.169 HD
ATOM     12  C   UNL     1      20.177  33.942  16.906  1.00  0.00     0.087 C 
ATOM     13  H   UNL     1      23.892  30.630  16.115  1.00  0.00     0.167 HD
ENDBRANCH   1   2
BRANCH   1  14
ATOM     14  C   UNL     1      19.898  32.157  11.416  1.00  0.00     0.180 C 
BRANCH  14  15
ATOM     15  C   UNL     1      20.758  31.681  10.267  1.00  0.00    -0.027 A 
ATOM     16  C   UNL     1      21.482  32.599   9.492  1.00  0.00     0.005 A 
ATOM     17  C   UNL     1      20.812  30.321   9.934  1.00  0.00     0.005 A 
ATOM     18  C   UNL     1      22.265  32.161   8.423  1.00  0.00     0.000 A 
ATOM     19  C   UNL     1      21.596  29.884   8.865  1.00  0.00     0.000 A 
ATOM     20  C   UNL     1      22.325  30.803   8.112  1.00  0.00     0.000 A 
ENDBRANCH  14  15
ENDBRANCH   1  14
TORSDOF 3
ENDMDL
MODEL 6
REMARK VINA RESULT:    -5.380      2.654      4.074
REMARK INTER + INTRA:          -6.626
REMARK INTER:                  -6.233
REMARK INTRA:                  -0.393
REMARK UNBOUND:                -0.303
REMARK SMILES Cc1nc2[nH]ccc2c(=NCc2ccccc2)[nH]1
REMARK SMILES IDX 10 1 9 2 18 3 2 4 3 5 8 6 4 7 7 8 5 9 6 10 1 12 11 14 12 15
REMARK SMILES IDX 13 16 17 17 14 18 16 19 15 20
REMARK H PARENT 18 11 5 13
ROOT
ATOM      1  N   UNL     1      21.043  33.466  10.145  1.00  0.00    -0.263 NA
ENDROOT
BRANCH   1   2
ATOM      2  C   UNL     1      21.132  32.995  11.337  1.00  0.00     0.137 A 
ATOM      3  N   UNL     1      21.468  33.803  12.396  1.00  0.00    -0.328 N 
ATOM      4  C   UNL     1      21.602  33.443  13.724  1.00  0.00     0.106 A 
ATOM      5  N   UNL     1      21.418  32.227  14.167  1.00  0.00    -0.217 NA
ATOM      6  C   UNL     1      20.921  31.631  11.806  1.00  0.00     0.061 A 
ATOM      7  C   UNL     1      21.081  31.375  13.163  1.00  0.00     0.143 A 
ATOM      8  C   UNL     1      20.568  30.391  11.208  1.00  0.00     0.033 A 
ATOM      9  N   UNL     1      20.840  30.051  13.390  1.00  0.00    -0.346 N 
ATOM     10  C   UNL     1      20.525  29.437  12.206  1.00  0.00     0.085 A 
ATOM     11  H   UNL     1      21.628  34.766  12.133  1.00  0.00     0.169 HD
ATOM     12  C   UNL     1      21.982  34.518  14.708  1.00  0.00     0.087 C 
ATOM     13  H   UNL     1      20.892  29.615  14.300  1.00  0.00     0.167 HD
ENDBRANCH   1   2
BRANCH   1  14
ATOM     14  C   UNL     1      22.069  33.231   9.148  1.00  0.00     0.180 C 
BRANCH  14  15
ATOM     15  C   UNL     1      22.675  34.539   8.691  1.00  0.00    -0.027 A 
ATOM     16  C   UNL     1      22.383  35.053   7.419  1.00  0.00     0.005 A 
ATOM     17  C   UNL     1      23.569  35.236   9.516  1.00  0.00     0.005 A 
ATOM     18  C   UNL     1      22.953  36.253   6.993  1.00  0.00     0.000 A 
ATOM     19  C   UNL     1      24.138  36.437   9.088  1.00  0.00     0.000 A 
ATOM     20  C   UNL     1      23.827  36.947   7.829  1.00  0.00     0.000 A 
ENDBRANCH  14  15
ENDBRANCH   1  14
TORSDOF 3
ENDMDL
MODEL 7
REMARK VINA RESULT:    -5.063      3.624      5.678
REMARK INTER + INTRA:          -6.254
REMARK INTER:                  -5.473
REMARK INTRA:                  -0.781
REMARK UNBOUND:                -0.303
REMARK SMILES Cc1nc2[nH]ccc2c(=NCc2ccccc2)[nH]1
REMARK SMILES IDX 10 1 9 2 18 3 2 4 3 5 8 6 4 7 7 8 5 9 6 10 1 12 11 14 12 15
REMARK SMILES IDX 13 16 17 17 14 18 16 19 15 20
REMARK H PARENT 18 11 5 13
ROOT
ATOM      1  N   UNL     1      21.856  32.790  11.564  1.00  0.00    -0.263 NA
ENDROOT
BRANCH   1   2
ATOM      2  C   UNL     1      22.260  31.963  12.460  1.00  0.00     0.137 A 
ATOM      3  N   UNL     1      21.718  31.964  13.722  1.00  0.00    -0.328 N 
ATOM      4  C   UNL     1      22.047  31.141  14.782  1.00  0.00     0.106 A 
ATOM      5  N   UNL     1      22.963  30.209  14.720  1.00  0.00    -0.217 NA
ATOM      6  C   UNL     1      23.286  30.931  12.364  1.00  0.00     0.061 A 
ATOM      7  C   UNL     1      23.540  30.158  13.492  1.00  0.00     0.143 A 
ATOM      8  C   UNL     1      24.169  30.462  11.355  1.00  0.00     0.033 A 
ATOM      9  N   UNL     1      24.525  29.261  13.193  1.00  0.00    -0.346 N 
ATOM     10  C   UNL     1      24.918  29.434  11.892  1.00  0.00     0.085 A 
ATOM     11  H   UNL     1      20.998  32.660  13.850  1.00  0.00     0.169 HD
ATOM     12  C   UNL     1      21.305  31.335  16.078  1.00  0.00     0.087 C 
ATOM     13  H   UNL     1      24.889  28.583  13.849  1.00  0.00     0.167 HD
ENDBRANCH   1   2
BRANCH   1  14
ATOM     14  C   UNL     1      20.716  32.503  10.713  1.00  0.00     0.180 C 
BRANCH  14  15
ATOM     15  C   UNL     1      21.139  31.674   9.522  1.00  0.00    -0.027 A 
ATOM     16  C   UNL     1      20.923  30.288   9.507  1.00  0.00     0.005 A 
ATOM     17  C   UNL     1      21.790  32.271   8.434  1.00  0.00     0.005 A 
ATOM     18  C   UNL     1      21.326  29.521   8.413  1.00  0.00     0.000 A 
ATOM     19  C   UNL     1      22.193  31.502   7.340  1.00  0.00     0.000 A 
ATOM     20  C   UNL     1      21.957  30.128   7.329  1.00  0.00     0.000 A 
ENDBRANCH  14  15
ENDBRANCH   1  14
TORSDOF 3
ENDMDL
MODEL 8
REMARK VINA RESULT:    -5.020      3.160      5.088
REMARK INTER + INTRA:          -6.203
REMARK INTER:                  -5.890
REMARK INTRA:                  -0.313
REMARK UNBOUND:                -0.303
REMARK SMILES Cc1nc2[nH]ccc2c(=NCc2ccccc2)[nH]1
REMARK SMILES IDX 10 1 9 2 18 3 2 4 3 5 8 6 4 7 7 8 5 9 6 10 1 12 11 14 12 15
REMARK SMILES IDX 13 16 17 17 14 18 16 19 15 20
REMARK H PARENT 18 11 5 13
ROOT
ATOM      1  N   UNL     1      20.631  33.174  11.295  1.00  0.00    -0.263 NA
ENDROOT
BRANCH   1   2
ATOM      2  C   UNL     1      21.159  32.898  10.157  1.00  0.00     0.137 A 
ATOM      3  N   UNL     1      21.736  33.878   9.386  1.00  0.00    -0.328 N 
ATOM      4  C   UNL     1      22.339  33.735   8.151  1.00  0.00     0.106 A 
ATOM      5  N   UNL     1      22.443  32.593   7.523  1.00  0.00    -0.217 NA
ATOM      6  C   UNL     1      21.262  31.612   9.477  1.00  0.00     0.061 A 
ATOM      7  C   UNL     1      21.888  31.578   8.236  1.00  0.00     0.143 A 
ATOM      8  C   UNL     1      20.867  30.277   9.758  1.00  0.00     0.033 A 
ATOM      9  N   UNL     1      21.880  30.293   7.777  1.00  0.00    -0.346 N 
ATOM     10  C   UNL     1      21.260  29.487   8.695  1.00  0.00     0.085 A 
ATOM     11  H   UNL     1      21.695  34.796   9.806  1.00  0.00     0.169 HD
ATOM     12  C   UNL     1      22.904  34.970   7.499  1.00  0.00     0.087 C 
ATOM     13  H   UNL     1      22.277  30.006   6.893  1.00  0.00     0.167 HD
ENDBRANCH   1   2
BRANCH   1  14
ATOM     14  C   UNL     1      20.967  32.434  12.496  1.00  0.00     0.180 C 
BRANCH  14  15
ATOM     15  C   UNL     1      21.610  33.344  13.518  1.00  0.00    -0.027 A 
ATOM     16  C   UNL     1      21.644  34.731  13.314  1.00  0.00     0.005 A 
ATOM     17  C   UNL     1      22.220  32.812  14.662  1.00  0.00     0.005 A 
ATOM     18  C   UNL     1      22.251  35.570  14.250  1.00  0.00     0.000 A 
ATOM     19  C   UNL     1      22.826  33.652  15.598  1.00  0.00     0.000 A 
ATOM     20  C   UNL     1      22.838  35.031  15.393  1.00  0.00     0.000 A 
ENDBRANCH  14  15
ENDBRANCH   1  14
TORSDOF 3
ENDMDL
MODEL 9
REMARK VINA RESULT:    -4.875      4.035      6.214
REMARK INTER + INTRA:          -6.033
REMARK INTER:                  -5.526
REMARK INTRA:                  -0.507
REMARK UNBOUND:                -0.303
REMARK SMILES Cc1nc2[nH]ccc2c(=NCc2ccccc2)[nH]1
REMARK SMILES IDX 10 1 9 2 18 3 2 4 3 5 8 6 4 7 7 8 5 9 6 10 1 12 11 14 12 15
REMARK SMILES IDX 13 16 17 17 14 18 16 19 15 20
REMARK H PARENT 18 11 5 13
ROOT
ATOM      1  N   UNL     1      21.690  34.050  12.529  1.00  0.00    -0.263 NA
ENDROOT
BRANCH   1   2
ATOM      2  C   UNL     1      21.614  33.246  11.530  1.00  0.00     0.137 A 
ATOM      3  N   UNL     1      21.950  33.655  10.262  1.00  0.00    -0.328 N 
ATOM      4  C   UNL     1      21.920  32.910   9.099  1.00  0.00     0.106 A 
ATOM      5  N   UNL     1      21.549  31.657   9.049  1.00  0.00    -0.217 NA
ATOM      6  C   UNL     1      21.196  31.849  11.502  1.00  0.00     0.061 A 
ATOM      7  C   UNL     1      21.202  31.190  10.277  1.00  0.00     0.143 A 
ATOM      8  C   UNL     1      20.748  30.900  12.459  1.00  0.00     0.033 A 
ATOM      9  N   UNL     1      20.781  29.906  10.469  1.00  0.00    -0.346 N 
ATOM     10  C   UNL     1      20.500  29.714  11.796  1.00  0.00     0.085 A 
ATOM     11  H   UNL     1      22.249  34.619  10.217  1.00  0.00     0.169 HD
ATOM     12  C   UNL     1      22.339  33.588   7.820  1.00  0.00     0.087 C 
ATOM     13  H   UNL     1      20.698  29.222   9.730  1.00  0.00     0.167 HD
ENDBRANCH   1   2
BRANCH   1  14
ATOM     14  C   UNL     1      22.608  33.822  13.629  1.00  0.00     0.180 C 
BRANCH  14  15
ATOM     15  C   UNL     1      21.945  34.150  14.948  1.00  0.00    -0.027 A 
ATOM     16  C   UNL     1      20.990  33.283  15.499  1.00  0.00     0.005 A 
ATOM     17  C   UNL     1      22.245  35.344  15.618  1.00  0.00     0.005 A 
ATOM     18  C   UNL     1      20.369  33.592  16.710  1.00  0.00     0.000 A 
ATOM     19  C   UNL     1      21.623  35.652  16.829  1.00  0.00     0.000 A 
ATOM     20  C   UNL     1      20.688  34.774  17.377  1.00  0.00     0.000 A 
ENDBRANCH  14  15
ENDBRANCH   1  14
TORSDOF 3
ENDMDL
