MODEL 1
REMARK VINA RESULT:    -5.401      0.000      0.000
REMARK INTER + INTRA:          -6.878
REMARK INTER:                  -6.348
REMARK INTRA:                  -0.530
REMARK UNBOUND:                -0.530
REMARK SMILES Cc1nc2nccc-2c(NCc2ccccc2)[nH]1
REMARK SMILES IDX 10 1 9 3 18 4 2 5 3 6 8 7 4 8 7 9 5 10 6 11 1 13 11 14 12 15
REMARK SMILES IDX 13 16 17 17 14 18 16 19 15 20
REMARK H PARENT 10 2 18 12
ROOT
ATOM      1  N   UNL     1      22.959  33.363   8.057  1.00  0.00    -0.367 N 
ATOM      2  H   UNL     1      23.688  33.627   8.716  1.00  0.00     0.162 HD
ENDROOT
BRANCH   1   3
ATOM      3  C   UNL     1      22.267  32.227   8.431  1.00  0.00     0.116 A 
ATOM      4  N   UNL     1      22.281  31.073   7.676  1.00  0.00    -0.330 N 
ATOM      5  C   UNL     1      21.615  29.923   8.047  1.00  0.00     0.106 A 
ATOM      6  N   UNL     1      20.890  29.809   9.118  1.00  0.00    -0.215 NA
ATOM      7  C   UNL     1      21.543  32.165   9.560  1.00  0.00     0.061 A 
ATOM      8  C   UNL     1      20.825  30.920   9.907  1.00  0.00     0.164 A 
ATOM      9  C   UNL     1      21.221  33.045  10.638  1.00  0.00     0.036 A 
ATOM     10  N   UNL     1      20.159  31.028  11.025  1.00  0.00    -0.236 NA
ATOM     11  C   UNL     1      20.420  32.327  11.445  1.00  0.00     0.114 A 
ATOM     12  H   UNL     1      22.915  31.059   6.891  1.00  0.00     0.169 HD
ATOM     13  C   UNL     1      21.752  28.721   7.147  1.00  0.00     0.087 C 
ENDBRANCH   1   3
BRANCH   1  14
ATOM     14  C   UNL     1      22.396  34.500   7.353  1.00  0.00     0.150 C 
BRANCH  14  15
ATOM     15  C   UNL     1      23.005  35.774   7.886  1.00  0.00    -0.029 A 
ATOM     16  C   UNL     1      22.868  36.981   7.185  1.00  0.00     0.005 A 
ATOM     17  C   UNL     1      23.689  35.774   9.110  1.00  0.00     0.005 A 
ATOM     18  C   UNL     1      23.419  38.159   7.691  1.00  0.00     0.000 A 
ATOM     19  C   UNL     1      24.238  36.953   9.615  1.00  0.00     0.000 A 
ATOM     20  C   UNL     1      24.105  38.144   8.904  1.00  0.00     0.000 A 
ENDBRANCH  14  15
ENDBRANCH   1  14
TORSDOF 3
ENDMDL
MODEL 2
REMARK VINA RESULT:    -5.357      1.185      2.838
REMARK INTER + INTRA:          -6.826
REMARK INTER:                  -6.328
REMARK INTRA:                  -0.498
REMARK UNBOUND:                -0.530
REMARK SMILES Cc1nc2nccc-2c(NCc2ccccc2)[nH]1
REMARK SMILES IDX 10 1 9 3 18 4 2 5 3 6 8 7 4 8 7 9 5 10 6 11 1 13 11 14 12 15
REMARK SMILES IDX 13 16 17 17 14 18 16 19 15 20
REMARK H PARENT 10 2 18 12
ROOT
ATOM      1  N   UNL     1      22.055  33.718   9.754  1.00  0.00    -0.367 N 
ATOM      2  H   UNL     1      21.376  34.353   9.340  1.00  0.00     0.162 HD
ENDROOT
BRANCH   1   3
ATOM      3  C   UNL     1      21.669  32.392   9.696  1.00  0.00     0.116 A 
ATOM      4  N   UNL     1      21.250  31.696  10.811  1.00  0.00    -0.330 N 
ATOM      5  C   UNL     1      20.840  30.380  10.766  1.00  0.00     0.106 A 
ATOM      6  N   UNL     1      20.827  29.652   9.689  1.00  0.00    -0.215 NA
ATOM      7  C   UNL     1      21.665  31.694   8.549  1.00  0.00     0.061 A 
ATOM      8  C   UNL     1      21.240  30.277   8.551  1.00  0.00     0.164 A 
ATOM      9  C   UNL     1      21.992  31.941   7.181  1.00  0.00     0.036 A 
ATOM     10  N   UNL     1      21.305  29.740   7.362  1.00  0.00    -0.236 NA
ATOM     11  C   UNL     1      21.763  30.774   6.553  1.00  0.00     0.114 A 
ATOM     12  H   UNL     1      21.130  32.234  11.656  1.00  0.00     0.169 HD
ATOM     13  C   UNL     1      20.367  29.755  12.054  1.00  0.00     0.087 C 
ENDBRANCH   1   3
BRANCH   1  14
ATOM     14  C   UNL     1      23.418  34.204   9.657  1.00  0.00     0.150 C 
BRANCH  14  15
ATOM     15  C   UNL     1      23.430  35.528   8.933  1.00  0.00    -0.029 A 
ATOM     16  C   UNL     1      24.087  36.639   9.481  1.00  0.00     0.005 A 
ATOM     17  C   UNL     1      22.809  35.656   7.682  1.00  0.00     0.005 A 
ATOM     18  C   UNL     1      24.108  37.856   8.799  1.00  0.00     0.000 A 
ATOM     19  C   UNL     1      22.832  36.874   7.000  1.00  0.00     0.000 A 
ATOM     20  C   UNL     1      23.479  37.973   7.560  1.00  0.00     0.000 A 
ENDBRANCH  14  15
ENDBRANCH   1  14
TORSDOF 3
ENDMDL
MODEL 3
REMARK VINA RESULT:    -5.320      1.119      3.024
REMARK INTER + INTRA:          -6.782
REMARK INTER:                  -6.399
REMARK INTRA:                  -0.384
REMARK UNBOUND:                -0.530
REMARK SMILES Cc1nc2nccc-2c(NCc2ccccc2)[nH]1
REMARK SMILES IDX 10 1 9 3 18 4 2 5 3 6 8 7 4 8 7 9 5 10 6 11 1 13 11 14 12 15
REMARK SMILES IDX 13 16 17 17 14 18 16 19 15 20
REMARK H PARENT 10 2 18 12
ROOT
ATOM      1  N   UNL     1      22.983  33.743   8.924  1.00  0.00    -0.367 N 
ATOM      2  H   UNL     1      23.791  34.155   9.385  1.00  0.00     0.162 HD
ENDROOT
BRANCH   1   3
ATOM      3  C   UNL     1      22.191  32.993   9.773  1.00  0.00     0.116 A 
ATOM      4  N   UNL     1      21.804  33.450  11.016  1.00  0.00    -0.330 N 
ATOM      5  C   UNL     1      20.996  32.724  11.866  1.00  0.00     0.106 A 
ATOM      6  N   UNL     1      20.538  31.536  11.606  1.00  0.00    -0.215 NA
ATOM      7  C   UNL     1      21.737  31.773   9.443  1.00  0.00     0.061 A 
ATOM      8  C   UNL     1      20.893  31.020  10.395  1.00  0.00     0.164 A 
ATOM      9  C   UNL     1      21.846  30.891   8.326  1.00  0.00     0.036 A 
ATOM     10  N   UNL     1      20.546  29.850   9.930  1.00  0.00    -0.236 NA
ATOM     11  C   UNL     1      21.138  29.802   8.673  1.00  0.00     0.114 A 
ATOM     12  H   UNL     1      22.032  34.409  11.231  1.00  0.00     0.169 HD
ATOM     13  C   UNL     1      20.615  33.364  13.176  1.00  0.00     0.087 C 
ENDBRANCH   1   3
BRANCH   1  14
ATOM     14  C   UNL     1      22.506  34.535   7.806  1.00  0.00     0.150 C 
BRANCH  14  15
ATOM     15  C   UNL     1      22.992  35.956   7.952  1.00  0.00    -0.029 A 
ATOM     16  C   UNL     1      23.836  36.319   9.011  1.00  0.00     0.005 A 
ATOM     17  C   UNL     1      22.630  36.928   7.008  1.00  0.00     0.005 A 
ATOM     18  C   UNL     1      24.295  37.631   9.131  1.00  0.00     0.000 A 
ATOM     19  C   UNL     1      23.091  38.240   7.130  1.00  0.00     0.000 A 
ATOM     20  C   UNL     1      23.920  38.591   8.192  1.00  0.00     0.000 A 
ENDBRANCH  14  15
ENDBRANCH   1  14
TORSDOF 3
ENDMDL
MODEL 4
REMARK VINA RESULT:    -5.281      2.822      5.083
REMARK INTER + INTRA:          -6.738
REMARK INTER:                  -6.150
REMARK INTRA:                  -0.588
REMARK UNBOUND:                -0.530
REMARK SMILES Cc1nc2nccc-2c(NCc2ccccc2)[nH]1
REMARK SMILES IDX 10 1 9 3 18 4 2 5 3 6 8 7 4 8 7 9 5 10 6 11 1 13 11 14 12 15
REMARK SMILES IDX 13 16 17 17 14 18 16 19 15 20
REMARK H PARENT 10 2 18 12
ROOT
ATOM      1  N   UNL     1      21.145  33.210   9.882  1.00  0.00    -0.367 N 
ATOM      2  H   UNL     1      20.449  32.673   9.368  1.00  0.00     0.162 HD
ENDROOT
BRANCH   1   3
ATOM      3  C   UNL     1      21.234  32.857  11.215  1.00  0.00     0.116 A 
ATOM      4  N   UNL     1      21.579  33.762  12.197  1.00  0.00    -0.330 N 
ATOM      5  C   UNL     1      21.650  33.431  13.533  1.00  0.00     0.106 A 
ATOM      6  N   UNL     1      21.430  32.242  14.007  1.00  0.00    -0.215 NA
ATOM      7  C   UNL     1      20.982  31.611  11.647  1.00  0.00     0.061 A 
ATOM      8  C   UNL     1      21.093  31.294  13.087  1.00  0.00     0.164 A 
ATOM      9  C   UNL     1      20.602  30.364  11.061  1.00  0.00     0.036 A 
ATOM     10  N   UNL     1      20.829  30.040  13.339  1.00  0.00    -0.236 NA
ATOM     11  C   UNL     1      20.533  29.503  12.091  1.00  0.00     0.114 A 
ATOM     12  H   UNL     1      21.653  34.727  11.910  1.00  0.00     0.169 HD
ATOM     13  C   UNL     1      21.997  34.532  14.504  1.00  0.00     0.087 C 
ENDBRANCH   1   3
BRANCH   1  14
ATOM     14  C   UNL     1      22.249  33.647   9.049  1.00  0.00     0.150 C 
BRANCH  14  15
ATOM     15  C   UNL     1      22.517  32.613   7.983  1.00  0.00    -0.029 A 
ATOM     16  C   UNL     1      23.758  32.560   7.332  1.00  0.00     0.005 A 
ATOM     17  C   UNL     1      21.536  31.667   7.653  1.00  0.00     0.005 A 
ATOM     18  C   UNL     1      24.005  31.591   6.360  1.00  0.00     0.000 A 
ATOM     19  C   UNL     1      21.785  30.697   6.680  1.00  0.00     0.000 A 
ATOM     20  C   UNL     1      23.018  30.662   6.033  1.00  0.00     0.000 A 
ENDBRANCH  14  15
ENDBRANCH   1  14
TORSDOF 3
ENDMDL
MODEL 5
REMARK VINA RESULT:    -5.275      2.410      5.361
REMARK INTER + INTRA:          -6.730
REMARK INTER:                  -5.936
REMARK INTRA:                  -0.795
REMARK UNBOUND:                -0.530
REMARK SMILES Cc1nc2nccc-2c(NCc2ccccc2)[nH]1
REMARK SMILES IDX 10 1 9 3 18 4 2 5 3 6 8 7 4 8 7 9 5 10 6 11 1 13 11 14 12 15
REMARK SMILES IDX 13 16 17 17 14 18 16 19 15 20
REMARK H PARENT 10 2 18 12
ROOT
ATOM      1  N   UNL     1      20.146  30.224  11.238  1.00  0.00    -0.367 N 
ATOM      2  H   UNL     1      19.476  30.935  11.521  1.00  0.00     0.162 HD
ENDROOT
BRANCH   1   3
ATOM      3  C   UNL     1      20.809  30.534  10.065  1.00  0.00     0.116 A 
ATOM      4  N   UNL     1      21.058  29.593   9.088  1.00  0.00    -0.330 N 
ATOM      5  C   UNL     1      21.698  29.890   7.903  1.00  0.00     0.106 A 
ATOM      6  N   UNL     1      22.154  31.066   7.591  1.00  0.00    -0.215 NA
ATOM      7  C   UNL     1      21.247  31.773   9.793  1.00  0.00     0.061 A 
ATOM      8  C   UNL     1      21.949  32.043   8.520  1.00  0.00     0.164 A 
ATOM      9  C   UNL     1      21.239  33.045  10.444  1.00  0.00     0.036 A 
ATOM     10  N   UNL     1      22.320  33.290   8.415  1.00  0.00    -0.236 NA
ATOM     11  C   UNL     1      21.874  33.873   9.596  1.00  0.00     0.114 A 
ATOM     12  H   UNL     1      20.632  28.688   9.219  1.00  0.00     0.169 HD
ATOM     13  C   UNL     1      21.866  28.773   6.905  1.00  0.00     0.087 C 
ENDBRANCH   1   3
BRANCH   1  14
ATOM     14  C   UNL     1      20.712  29.501  12.361  1.00  0.00     0.150 C 
BRANCH  14  15
ATOM     15  C   UNL     1      21.692  30.388  13.089  1.00  0.00    -0.029 A 
ATOM     16  C   UNL     1      21.243  31.480  13.846  1.00  0.00     0.005 A 
ATOM     17  C   UNL     1      23.065  30.111  13.045  1.00  0.00     0.005 A 
ATOM     18  C   UNL     1      22.153  32.287  14.530  1.00  0.00     0.000 A 
ATOM     19  C   UNL     1      23.974  30.919  13.732  1.00  0.00     0.000 A 
ATOM     20  C   UNL     1      23.517  32.007  14.471  1.00  0.00     0.000 A 
ENDBRANCH  14  15
ENDBRANCH   1  14
TORSDOF 3
ENDMDL
MODEL 6
REMARK VINA RESULT:    -5.184      2.205      4.073
REMARK INTER + INTRA:          -6.623
REMARK INTER:                  -6.189
REMARK INTRA:                  -0.434
REMARK UNBOUND:                -0.530
REMARK SMILES Cc1nc2nccc-2c(NCc2ccccc2)[nH]1
REMARK SMILES IDX 10 1 9 3 18 4 2 5 3 6 8 7 4 8 7 9 5 10 6 11 1 13 11 14 12 15
REMARK SMILES IDX 13 16 17 17 14 18 16 19 15 20
REMARK H PARENT 10 2 18 12
ROOT
ATOM      1  N   UNL     1      22.039  33.872  11.838  1.00  0.00    -0.367 N 
ATOM      2  H   UNL     1      21.304  34.361  11.332  1.00  0.00     0.162 HD
ENDROOT
BRANCH   1   3
ATOM      3  C   UNL     1      21.616  32.681  12.399  1.00  0.00     0.116 A 
ATOM      4  N   UNL     1      21.534  32.497  13.764  1.00  0.00    -0.330 N 
ATOM      5  C   UNL     1      21.093  31.324  14.339  1.00  0.00     0.106 A 
ATOM      6  N   UNL     1      20.736  30.268  13.671  1.00  0.00    -0.215 NA
ATOM      7  C   UNL     1      21.247  31.627  11.654  1.00  0.00     0.061 A 
ATOM      8  C   UNL     1      20.803  30.380  12.314  1.00  0.00     0.164 A 
ATOM      9  C   UNL     1      21.152  31.318  10.263  1.00  0.00     0.036 A 
ATOM     10  N   UNL     1      20.492  29.449  11.452  1.00  0.00    -0.236 NA
ATOM     11  C   UNL     1      20.713  30.049  10.217  1.00  0.00     0.114 A 
ATOM     12  H   UNL     1      21.690  33.313  14.336  1.00  0.00     0.169 HD
ATOM     13  C   UNL     1      21.014  31.275  15.843  1.00  0.00     0.087 C 
ENDBRANCH   1   3
BRANCH   1  14
ATOM     14  C   UNL     1      23.363  34.129  11.303  1.00  0.00     0.150 C 
BRANCH  14  15
ATOM     15  C   UNL     1      23.240  34.764   9.940  1.00  0.00    -0.029 A 
ATOM     16  C   UNL     1      23.927  35.949   9.637  1.00  0.00     0.005 A 
ATOM     17  C   UNL     1      22.462  34.158   8.944  1.00  0.00     0.005 A 
ATOM     18  C   UNL     1      23.822  36.523   8.370  1.00  0.00     0.000 A 
ATOM     19  C   UNL     1      22.359  34.733   7.676  1.00  0.00     0.000 A 
ATOM     20  C   UNL     1      23.037  35.916   7.391  1.00  0.00     0.000 A 
ENDBRANCH  14  15
ENDBRANCH   1  14
TORSDOF 3
ENDMDL
MODEL 7
REMARK VINA RESULT:    -5.156      3.432      6.347
REMARK INTER + INTRA:          -6.590
REMARK INTER:                  -6.264
REMARK INTRA:                  -0.326
REMARK UNBOUND:                -0.530
REMARK SMILES Cc1nc2nccc-2c(NCc2ccccc2)[nH]1
REMARK SMILES IDX 10 1 9 3 18 4 2 5 3 6 8 7 4 8 7 9 5 10 6 11 1 13 11 14 12 15
REMARK SMILES IDX 13 16 17 17 14 18 16 19 15 20
REMARK H PARENT 10 2 18 12
ROOT
ATOM      1  N   UNL     1      20.543  31.982  12.022  1.00  0.00    -0.367 N 
ATOM      2  H   UNL     1      19.527  31.921  12.013  1.00  0.00     0.162 HD
ENDROOT
BRANCH   1   3
ATOM      3  C   UNL     1      21.036  32.748  13.061  1.00  0.00     0.116 A 
ATOM      4  N   UNL     1      21.434  34.058  12.889  1.00  0.00    -0.330 N 
ATOM      5  C   UNL     1      21.907  34.842  13.920  1.00  0.00     0.106 A 
ATOM      6  N   UNL     1      22.052  34.433  15.145  1.00  0.00    -0.215 NA
ATOM      7  C   UNL     1      21.152  32.273  14.312  1.00  0.00     0.061 A 
ATOM      8  C   UNL     1      21.686  33.142  15.383  1.00  0.00     0.164 A 
ATOM      9  C   UNL     1      20.889  31.041  14.984  1.00  0.00     0.036 A 
ATOM     10  N   UNL     1      21.747  32.528  16.533  1.00  0.00    -0.236 NA
ATOM     11  C   UNL     1      21.255  31.256  16.260  1.00  0.00     0.114 A 
ATOM     12  H   UNL     1      21.241  34.469  11.988  1.00  0.00     0.169 HD
ATOM     13  C   UNL     1      22.266  36.270  13.598  1.00  0.00     0.087 C 
ENDBRANCH   1   3
BRANCH   1  14
ATOM     14  C   UNL     1      21.184  30.809  11.460  1.00  0.00     0.150 C 
BRANCH  14  15
ATOM     15  C   UNL     1      21.342  30.986   9.969  1.00  0.00    -0.029 A 
ATOM     16  C   UNL     1      21.732  32.221   9.432  1.00  0.00     0.005 A 
ATOM     17  C   UNL     1      21.132  29.904   9.102  1.00  0.00     0.005 A 
ATOM     18  C   UNL     1      21.891  32.374   8.055  1.00  0.00     0.000 A 
ATOM     19  C   UNL     1      21.293  30.059   7.724  1.00  0.00     0.000 A 
ATOM     20  C   UNL     1      21.670  31.294   7.202  1.00  0.00     0.000 A 
ENDBRANCH  14  15
ENDBRANCH   1  14
TORSDOF 3
ENDMDL
MODEL 8
REMARK VINA RESULT:    -5.009      3.475      5.832
REMARK INTER + INTRA:          -6.418
REMARK INTER:                  -5.724
REMARK INTRA:                  -0.694
REMARK UNBOUND:                -0.530
REMARK SMILES Cc1nc2nccc-2c(NCc2ccccc2)[nH]1
REMARK SMILES IDX 10 1 9 3 18 4 2 5 3 6 8 7 4 8 7 9 5 10 6 11 1 13 11 14 12 15
REMARK SMILES IDX 13 16 17 17 14 18 16 19 15 20
REMARK H PARENT 10 2 18 12
ROOT
ATOM      1  N   UNL     1      22.216  32.896  11.274  1.00  0.00    -0.367 N 
ATOM      2  H   UNL     1      22.646  33.814  11.364  1.00  0.00     0.162 HD
ENDROOT
BRANCH   1   3
ATOM      3  C   UNL     1      22.339  32.121  12.411  1.00  0.00     0.116 A 
ATOM      4  N   UNL     1      21.642  32.395  13.570  1.00  0.00    -0.330 N 
ATOM      5  C   UNL     1      21.736  31.618  14.705  1.00  0.00     0.106 A 
ATOM      6  N   UNL     1      22.499  30.573  14.818  1.00  0.00    -0.215 NA
ATOM      7  C   UNL     1      23.137  31.042  12.464  1.00  0.00     0.061 A 
ATOM      8  C   UNL     1      23.225  30.252  13.710  1.00  0.00     0.164 A 
ATOM      9  C   UNL     1      24.027  30.364  11.576  1.00  0.00     0.036 A 
ATOM     10  N   UNL     1      24.051  29.246  13.600  1.00  0.00    -0.236 NA
ATOM     11  C   UNL     1      24.520  29.340  12.295  1.00  0.00     0.114 A 
ATOM     12  H   UNL     1      20.948  33.125  13.513  1.00  0.00     0.169 HD
ATOM     13  C   UNL     1      20.884  32.010  15.886  1.00  0.00     0.087 C 
ENDBRANCH   1   3
BRANCH   1  14
ATOM     14  C   UNL     1      21.085  32.889  10.366  1.00  0.00     0.150 C 
BRANCH  14  15
ATOM     15  C   UNL     1      21.335  31.896   9.258  1.00  0.00    -0.029 A 
ATOM     16  C   UNL     1      21.924  32.302   8.052  1.00  0.00     0.005 A 
ATOM     17  C   UNL     1      21.010  30.544   9.433  1.00  0.00     0.005 A 
ATOM     18  C   UNL     1      22.167  31.376   7.037  1.00  0.00     0.000 A 
ATOM     19  C   UNL     1      21.255  29.618   8.417  1.00  0.00     0.000 A 
ATOM     20  C   UNL     1      21.831  30.035   7.219  1.00  0.00     0.000 A 
ENDBRANCH  14  15
ENDBRANCH   1  14
TORSDOF 3
ENDMDL
MODEL 9
REMARK VINA RESULT:    -4.894      3.782      6.715
REMARK INTER + INTRA:          -6.282
REMARK INTER:                  -5.987
REMARK INTRA:                  -0.295
REMARK UNBOUND:                -0.530
REMARK SMILES Cc1nc2nccc-2c(NCc2ccccc2)[nH]1
REMARK SMILES IDX 10 1 9 3 18 4 2 5 3 6 8 7 4 8 7 9 5 10 6 11 1 13 11 14 12 15
REMARK SMILES IDX 13 16 17 17 14 18 16 19 15 20
REMARK H PARENT 10 2 18 12
ROOT
ATOM      1  N   UNL     1      21.368  32.782  12.334  1.00  0.00    -0.367 N 
ATOM      2  H   UNL     1      21.443  33.617  11.756  1.00  0.00     0.162 HD
ENDROOT
BRANCH   1   3
ATOM      3  C   UNL     1      21.559  33.031  13.680  1.00  0.00     0.116 A 
ATOM      4  N   UNL     1      21.448  32.041  14.635  1.00  0.00    -0.330 N 
ATOM      5  C   UNL     1      21.657  32.268  15.980  1.00  0.00     0.106 A 
ATOM      6  N   UNL     1      21.951  33.425  16.491  1.00  0.00    -0.215 NA
ATOM      7  C   UNL     1      21.874  34.248  14.149  1.00  0.00     0.061 A 
ATOM      8  C   UNL     1      22.066  34.451  15.602  1.00  0.00     0.164 A 
ATOM      9  C   UNL     1      22.096  35.548  13.601  1.00  0.00     0.036 A 
ATOM     10  N   UNL     1      22.354  35.690  15.894  1.00  0.00    -0.236 NA
ATOM     11  C   UNL     1      22.367  36.331  14.660  1.00  0.00     0.114 A 
ATOM     12  H   UNL     1      21.333  31.100  14.293  1.00  0.00     0.169 HD
ATOM     13  C   UNL     1      21.545  31.085  16.908  1.00  0.00     0.087 C 
ENDBRANCH   1   3
BRANCH   1  14
ATOM     14  C   UNL     1      20.470  31.789  11.778  1.00  0.00     0.150 C 
BRANCH  14  15
ATOM     15  C   UNL     1      20.929  31.414  10.390  1.00  0.00    -0.029 A 
ATOM     16  C   UNL     1      20.826  30.091   9.935  1.00  0.00     0.005 A 
ATOM     17  C   UNL     1      21.437  32.392   9.524  1.00  0.00     0.005 A 
ATOM     18  C   UNL     1      21.238  29.754   8.645  1.00  0.00     0.000 A 
ATOM     19  C   UNL     1      21.848  32.053   8.234  1.00  0.00     0.000 A 
ATOM     20  C   UNL     1      21.750  30.734   7.797  1.00  0.00     0.000 A 
ENDBRANCH  14  15
ENDBRANCH   1  14
TORSDOF 3
ENDMDL
