MODEL 1
REMARK VINA RESULT:    -5.987      0.000      0.000
REMARK INTER + INTRA:          -7.788
REMARK INTER:                  -7.211
REMARK INTRA:                  -0.576
REMARK UNBOUND:                -0.576
REMARK SMILES Nc1ccc(S(=O)(=O)N=c2cnc3ccccc3[nH]2)cc1
REMARK SMILES IDX 6 1 7 2 8 3 9 4 10 5 19 6 18 7 11 8 17 9 13 10 12 11 16 12
REMARK SMILES IDX 14 13 15 14 5 16 4 17 20 18 3 19 21 20 2 21 1 22
REMARK H PARENT 19 15 1 23 1 24
ROOT
ATOM      1  S   UNL     1      20.474  31.413  11.344  1.00  0.00     0.284 S 
ATOM      2  O   UNL     1      19.976  30.135  11.814  1.00  0.00    -0.199 OA
ATOM      3  O   UNL     1      19.580  32.559  11.300  1.00  0.00    -0.199 OA
ENDROOT
BRANCH   1   4
ATOM      4  N   UNL     1      21.805  31.794  12.176  1.00  0.00    -0.140 NA
BRANCH   4   5
ATOM      5  C   UNL     1      21.783  32.776  13.014  1.00  0.00     0.162 A 
ATOM      6  N   UNL     1      21.974  34.121  12.798  1.00  0.00    -0.336 N 
ATOM      7  C   UNL     1      22.098  35.000  13.885  1.00  0.00     0.066 A 
ATOM      8  C   UNL     1      21.518  32.353  14.452  1.00  0.00     0.159 A 
ATOM      9  C   UNL     1      22.361  36.359  13.678  1.00  0.00     0.028 A 
ATOM     10  C   UNL     1      21.868  34.523  15.194  1.00  0.00     0.087 A 
ATOM     11  N   UNL     1      21.565  33.171  15.458  1.00  0.00    -0.251 NA
ATOM     12  C   UNL     1      22.433  37.233  14.764  1.00  0.00     0.002 A 
ATOM     13  C   UNL     1      21.943  35.410  16.270  1.00  0.00     0.030 A 
ATOM     14  C   UNL     1      22.228  36.759  16.058  1.00  0.00     0.002 A 
ATOM     15  H   UNL     1      22.377  34.420  11.912  1.00  0.00     0.168 HD
ENDBRANCH   4   5
ENDBRANCH   1   4
BRANCH   1  16
ATOM     16  C   UNL     1      21.085  31.160   9.692  1.00  0.00     0.089 A 
ATOM     17  C   UNL     1      21.560  32.245   8.953  1.00  0.00     0.024 A 
ATOM     18  C   UNL     1      21.076  29.876   9.144  1.00  0.00     0.024 A 
ATOM     19  C   UNL     1      22.028  32.036   7.653  1.00  0.00     0.027 A 
ATOM     20  C   UNL     1      21.548  29.683   7.843  1.00  0.00     0.027 A 
ATOM     21  C   UNL     1      21.981  30.764   7.070  1.00  0.00     0.031 A 
BRANCH  21  22
ATOM     22  N   UNL     1      22.563  30.544   5.816  1.00  0.00    -0.399 N 
ATOM     23  H   UNL     1      23.104  31.329   5.467  1.00  0.00     0.156 HD
ATOM     24  H   UNL     1      23.070  29.667   5.744  1.00  0.00     0.156 HD
ENDBRANCH  21  22
ENDBRANCH   1  16
TORSDOF 4
ENDMDL
MODEL 2
REMARK VINA RESULT:    -5.903      1.604      2.420
REMARK INTER + INTRA:          -7.687
REMARK INTER:                  -7.022
REMARK INTRA:                  -0.665
REMARK UNBOUND:                -0.576
REMARK SMILES Nc1ccc(S(=O)(=O)N=c2cnc3ccccc3[nH]2)cc1
REMARK SMILES IDX 6 1 7 2 8 3 9 4 10 5 19 6 18 7 11 8 17 9 13 10 12 11 16 12
REMARK SMILES IDX 14 13 15 14 5 16 4 17 20 18 3 19 21 20 2 21 1 22
REMARK H PARENT 19 15 1 23 1 24
ROOT
ATOM      1  S   UNL     1      21.390  32.594  10.784  1.00  0.00     0.284 S 
ATOM      2  O   UNL     1      19.997  32.881  11.067  1.00  0.00    -0.199 OA
ATOM      3  O   UNL     1      22.325  33.692  10.595  1.00  0.00    -0.199 OA
ENDROOT
BRANCH   1   4
ATOM      4  N   UNL     1      21.957  31.588  11.914  1.00  0.00    -0.140 NA
BRANCH   4   5
ATOM      5  C   UNL     1      21.793  31.864  13.164  1.00  0.00     0.162 A 
ATOM      6  N   UNL     1      21.644  33.083  13.784  1.00  0.00    -0.336 N 
ATOM      7  C   UNL     1      21.671  33.169  15.185  1.00  0.00     0.066 A 
ATOM      8  C   UNL     1      21.782  30.639  14.068  1.00  0.00     0.159 A 
ATOM      9  C   UNL     1      21.589  34.412  15.824  1.00  0.00     0.028 A 
ATOM     10  C   UNL     1      21.692  31.986  15.954  1.00  0.00     0.087 A 
ATOM     11  N   UNL     1      21.740  30.707  15.363  1.00  0.00    -0.251 NA
ATOM     12  C   UNL     1      21.566  34.483  17.218  1.00  0.00     0.002 A 
ATOM     13  C   UNL     1      21.668  32.074  17.348  1.00  0.00     0.030 A 
ATOM     14  C   UNL     1      21.609  33.317  17.979  1.00  0.00     0.002 A 
ATOM     15  H   UNL     1      21.874  33.926  13.263  1.00  0.00     0.168 HD
ENDBRANCH   4   5
ENDBRANCH   1   4
BRANCH   1  16
ATOM     16  C   UNL     1      21.432  31.608   9.303  1.00  0.00     0.089 A 
ATOM     17  C   UNL     1      21.087  30.257   9.357  1.00  0.00     0.024 A 
ATOM     18  C   UNL     1      21.820  32.195   8.097  1.00  0.00     0.024 A 
ATOM     19  C   UNL     1      21.134  29.490   8.190  1.00  0.00     0.027 A 
ATOM     20  C   UNL     1      21.861  31.416   6.938  1.00  0.00     0.027 A 
ATOM     21  C   UNL     1      21.567  30.049   6.982  1.00  0.00     0.031 A 
BRANCH  21  22
ATOM     22  N   UNL     1      21.494  29.308   5.798  1.00  0.00    -0.399 N 
ATOM     23  H   UNL     1      21.673  29.849   4.959  1.00  0.00     0.156 HD
ATOM     24  H   UNL     1      22.027  28.443   5.818  1.00  0.00     0.156 HD
ENDBRANCH  21  22
ENDBRANCH   1  16
TORSDOF 4
ENDMDL
MODEL 3
REMARK VINA RESULT:    -5.892      1.037      1.809
REMARK INTER + INTRA:          -7.674
REMARK INTER:                  -7.099
REMARK INTRA:                  -0.575
REMARK UNBOUND:                -0.576
REMARK SMILES Nc1ccc(S(=O)(=O)N=c2cnc3ccccc3[nH]2)cc1
REMARK SMILES IDX 6 1 7 2 8 3 9 4 10 5 19 6 18 7 11 8 17 9 13 10 12 11 16 12
REMARK SMILES IDX 14 13 15 14 5 16 4 17 20 18 3 19 21 20 2 21 1 22
REMARK H PARENT 19 15 1 23 1 24
ROOT
ATOM      1  S   UNL     1      20.587  31.528  11.227  1.00  0.00     0.284 S 
ATOM      2  O   UNL     1      20.093  30.292  11.800  1.00  0.00    -0.199 OA
ATOM      3  O   UNL     1      19.710  32.686  11.150  1.00  0.00    -0.199 OA
ENDROOT
BRANCH   1   4
ATOM      4  N   UNL     1      21.961  31.938  11.972  1.00  0.00    -0.140 NA
BRANCH   4   5
ATOM      5  C   UNL     1      21.922  32.614  13.070  1.00  0.00     0.162 A 
ATOM      6  N   UNL     1      21.133  32.439  14.184  1.00  0.00    -0.336 N 
ATOM      7  C   UNL     1      21.118  33.410  15.198  1.00  0.00     0.066 A 
ATOM      8  C   UNL     1      22.896  33.784  13.108  1.00  0.00     0.159 A 
ATOM      9  C   UNL     1      20.268  33.275  16.301  1.00  0.00     0.028 A 
ATOM     10  C   UNL     1      22.032  34.484  15.145  1.00  0.00     0.087 A 
ATOM     11  N   UNL     1      22.935  34.649  14.074  1.00  0.00    -0.251 NA
ATOM     12  C   UNL     1      20.296  34.220  17.328  1.00  0.00     0.002 A 
ATOM     13  C   UNL     1      22.050  35.421  16.180  1.00  0.00     0.030 A 
ATOM     14  C   UNL     1      21.183  35.294  17.266  1.00  0.00     0.002 A 
ATOM     15  H   UNL     1      20.321  31.829  14.115  1.00  0.00     0.168 HD
ENDBRANCH   4   5
ENDBRANCH   1   4
BRANCH   1  16
ATOM     16  C   UNL     1      21.117  31.161   9.569  1.00  0.00     0.089 A 
ATOM     17  C   UNL     1      21.606  32.182   8.752  1.00  0.00     0.024 A 
ATOM     18  C   UNL     1      21.030  29.851   9.092  1.00  0.00     0.024 A 
ATOM     19  C   UNL     1      22.010  31.883   7.448  1.00  0.00     0.027 A 
ATOM     20  C   UNL     1      21.438  29.567   7.787  1.00  0.00     0.027 A 
ATOM     21  C   UNL     1      21.885  30.585   6.938  1.00  0.00     0.031 A 
BRANCH  21  22
ATOM     22  N   UNL     1      22.403  30.272   5.677  1.00  0.00    -0.399 N 
ATOM     23  H   UNL     1      23.068  29.505   5.682  1.00  0.00     0.156 HD
ATOM     24  H   UNL     1      21.697  30.164   4.955  1.00  0.00     0.156 HD
ENDBRANCH  21  22
ENDBRANCH   1  16
TORSDOF 4
ENDMDL
MODEL 4
REMARK VINA RESULT:    -5.869      1.737      2.293
REMARK INTER + INTRA:          -7.646
REMARK INTER:                  -6.995
REMARK INTRA:                  -0.651
REMARK UNBOUND:                -0.576
REMARK SMILES Nc1ccc(S(=O)(=O)N=c2cnc3ccccc3[nH]2)cc1
REMARK SMILES IDX 6 1 7 2 8 3 9 4 10 5 19 6 18 7 11 8 17 9 13 10 12 11 16 12
REMARK SMILES IDX 14 13 15 14 5 16 4 17 20 18 3 19 21 20 2 21 1 22
REMARK H PARENT 19 15 1 23 1 24
ROOT
ATOM      1  S   UNL     1      20.710  31.386  10.621  1.00  0.00     0.284 S 
ATOM      2  O   UNL     1      20.414  30.105  10.011  1.00  0.00    -0.199 OA
ATOM      3  O   UNL     1      19.619  32.226  11.091  1.00  0.00    -0.199 OA
ENDROOT
BRANCH   1   4
ATOM      4  N   UNL     1      21.775  31.163  11.815  1.00  0.00    -0.140 NA
BRANCH   4   5
ATOM      5  C   UNL     1      21.579  31.712  12.966  1.00  0.00     0.162 A 
ATOM      6  N   UNL     1      21.734  33.023  13.354  1.00  0.00    -0.336 N 
ATOM      7  C   UNL     1      21.649  33.373  14.711  1.00  0.00     0.066 A 
ATOM      8  C   UNL     1      21.120  30.739  14.043  1.00  0.00     0.159 A 
ATOM      9  C   UNL     1      21.874  34.691  15.123  1.00  0.00     0.028 A 
ATOM     10  C   UNL     1      21.247  32.403  15.654  1.00  0.00     0.087 A 
ATOM     11  N   UNL     1      20.974  31.068  15.289  1.00  0.00    -0.251 NA
ATOM     12  C   UNL     1      21.739  35.039  16.469  1.00  0.00     0.002 A 
ATOM     13  C   UNL     1      21.115  32.766  16.997  1.00  0.00     0.030 A 
ATOM     14  C   UNL     1      21.363  34.077  17.405  1.00  0.00     0.002 A 
ATOM     15  H   UNL     1      22.252  33.653  12.745  1.00  0.00     0.168 HD
ENDBRANCH   4   5
ENDBRANCH   1   4
BRANCH   1  16
ATOM     16  C   UNL     1      21.628  32.335   9.429  1.00  0.00     0.089 A 
ATOM     17  C   UNL     1      21.862  33.693   9.653  1.00  0.00     0.024 A 
ATOM     18  C   UNL     1      22.100  31.714   8.271  1.00  0.00     0.024 A 
ATOM     19  C   UNL     1      22.575  34.431   8.704  1.00  0.00     0.027 A 
ATOM     20  C   UNL     1      22.812  32.465   7.332  1.00  0.00     0.027 A 
ATOM     21  C   UNL     1      23.014  33.836   7.515  1.00  0.00     0.031 A 
BRANCH  21  22
ATOM     22  N   UNL     1      23.829  34.551   6.631  1.00  0.00    -0.399 N 
ATOM     23  H   UNL     1      23.631  35.546   6.598  1.00  0.00     0.156 HD
ATOM     24  H   UNL     1      24.822  34.360   6.737  1.00  0.00     0.156 HD
ENDBRANCH  21  22
ENDBRANCH   1  16
TORSDOF 4
ENDMDL
MODEL 5
REMARK VINA RESULT:    -5.615      2.052      7.399
REMARK INTER + INTRA:          -7.340
REMARK INTER:                  -6.738
REMARK INTRA:                  -0.602
REMARK UNBOUND:                -0.576
REMARK SMILES Nc1ccc(S(=O)(=O)N=c2cnc3ccccc3[nH]2)cc1
REMARK SMILES IDX 6 1 7 2 8 3 9 4 10 5 19 6 18 7 11 8 17 9 13 10 12 11 16 12
REMARK SMILES IDX 14 13 15 14 5 16 4 17 20 18 3 19 21 20 2 21 1 22
REMARK H PARENT 19 15 1 23 1 24
ROOT
ATOM      1  S   UNL     1      21.147  30.556  12.885  1.00  0.00     0.284 S 
ATOM      2  O   UNL     1      20.403  29.556  13.625  1.00  0.00    -0.199 OA
ATOM      3  O   UNL     1      22.489  30.252  12.415  1.00  0.00    -0.199 OA
ENDROOT
BRANCH   1   4
ATOM      4  N   UNL     1      20.243  31.070  11.647  1.00  0.00    -0.140 NA
BRANCH   4   5
ATOM      5  C   UNL     1      20.716  31.037  10.447  1.00  0.00     0.162 A 
ATOM      6  N   UNL     1      20.894  29.967   9.600  1.00  0.00    -0.336 N 
ATOM      7  C   UNL     1      21.606  30.127   8.401  1.00  0.00     0.066 A 
ATOM      8  C   UNL     1      21.146  32.397   9.917  1.00  0.00     0.159 A 
ATOM      9  C   UNL     1      21.853  29.031   7.566  1.00  0.00     0.028 A 
ATOM     10  C   UNL     1      21.999  31.420   7.993  1.00  0.00     0.087 A 
ATOM     11  N   UNL     1      21.746  32.563   8.778  1.00  0.00    -0.251 NA
ATOM     12  C   UNL     1      22.518  29.209   6.352  1.00  0.00     0.002 A 
ATOM     13  C   UNL     1      22.664  31.582   6.776  1.00  0.00     0.030 A 
ATOM     14  C   UNL     1      22.926  30.482   5.959  1.00  0.00     0.002 A 
ATOM     15  H   UNL     1      20.841  29.026   9.986  1.00  0.00     0.168 HD
ENDBRANCH   4   5
ENDBRANCH   1   4
BRANCH   1  16
ATOM     16  C   UNL     1      21.268  31.995  13.924  1.00  0.00     0.089 A 
ATOM     17  C   UNL     1      21.813  33.176  13.417  1.00  0.00     0.024 A 
ATOM     18  C   UNL     1      20.824  31.929  15.246  1.00  0.00     0.024 A 
ATOM     19  C   UNL     1      21.913  34.297  14.246  1.00  0.00     0.027 A 
ATOM     20  C   UNL     1      20.930  33.057  16.063  1.00  0.00     0.027 A 
ATOM     21  C   UNL     1      21.518  34.233  15.587  1.00  0.00     0.031 A 
BRANCH  21  22
ATOM     22  N   UNL     1      21.508  35.391  16.372  1.00  0.00    -0.399 N 
ATOM     23  H   UNL     1      21.234  36.230  15.870  1.00  0.00     0.156 HD
ATOM     24  H   UNL     1      21.010  35.291  17.252  1.00  0.00     0.156 HD
ENDBRANCH  21  22
ENDBRANCH   1  16
TORSDOF 4
ENDMDL
MODEL 6
REMARK VINA RESULT:    -5.605      4.850      7.432
REMARK INTER + INTRA:          -7.328
REMARK INTER:                  -6.676
REMARK INTRA:                  -0.652
REMARK UNBOUND:                -0.576
REMARK SMILES Nc1ccc(S(=O)(=O)N=c2cnc3ccccc3[nH]2)cc1
REMARK SMILES IDX 6 1 7 2 8 3 9 4 10 5 19 6 18 7 11 8 17 9 13 10 12 11 16 12
REMARK SMILES IDX 14 13 15 14 5 16 4 17 20 18 3 19 21 20 2 21 1 22
REMARK H PARENT 19 15 1 23 1 24
ROOT
ATOM      1  S   UNL     1      24.426  35.484   7.742  1.00  0.00     0.284 S 
ATOM      2  O   UNL     1      24.527  35.080   9.131  1.00  0.00    -0.199 OA
ATOM      3  O   UNL     1      25.617  35.486   6.907  1.00  0.00    -0.199 OA
ENDROOT
BRANCH   1   4
ATOM      4  N   UNL     1      23.265  34.617   7.028  1.00  0.00    -0.140 NA
BRANCH   4   5
ATOM      5  C   UNL     1      22.654  33.690   7.686  1.00  0.00     0.162 A 
ATOM      6  N   UNL     1      21.892  33.778   8.828  1.00  0.00    -0.336 N 
ATOM      7  C   UNL     1      21.476  32.612   9.490  1.00  0.00     0.066 A 
ATOM      8  C   UNL     1      22.833  32.297   7.098  1.00  0.00     0.159 A 
ATOM      9  C   UNL     1      20.759  32.690  10.690  1.00  0.00     0.028 A 
ATOM     10  C   UNL     1      21.707  31.354   8.894  1.00  0.00     0.087 A 
ATOM     11  N   UNL     1      22.394  31.218   7.669  1.00  0.00    -0.251 NA
ATOM     12  C   UNL     1      20.307  31.526  11.315  1.00  0.00     0.002 A 
ATOM     13  C   UNL     1      21.249  30.198   9.530  1.00  0.00     0.030 A 
ATOM     14  C   UNL     1      20.554  30.282  10.738  1.00  0.00     0.002 A 
ATOM     15  H   UNL     1      21.936  34.633   9.379  1.00  0.00     0.168 HD
ENDBRANCH   4   5
ENDBRANCH   1   4
BRANCH   1  16
ATOM     16  C   UNL     1      23.769  37.137   7.724  1.00  0.00     0.089 A 
ATOM     17  C   UNL     1      22.786  37.485   6.796  1.00  0.00     0.024 A 
ATOM     18  C   UNL     1      24.250  38.079   8.636  1.00  0.00     0.024 A 
ATOM     19  C   UNL     1      22.285  38.790   6.784  1.00  0.00     0.027 A 
ATOM     20  C   UNL     1      23.740  39.380   8.613  1.00  0.00     0.027 A 
ATOM     21  C   UNL     1      22.791  39.760   7.658  1.00  0.00     0.031 A 
BRANCH  21  22
ATOM     22  N   UNL     1      22.199  41.026   7.721  1.00  0.00    -0.399 N 
ATOM     23  H   UNL     1      21.667  41.192   8.569  1.00  0.00     0.156 HD
ATOM     24  H   UNL     1      22.834  41.790   7.511  1.00  0.00     0.156 HD
ENDBRANCH  21  22
ENDBRANCH   1  16
TORSDOF 4
ENDMDL
MODEL 7
REMARK VINA RESULT:    -5.501      2.040      7.511
REMARK INTER + INTRA:          -7.203
REMARK INTER:                  -6.641
REMARK INTRA:                  -0.561
REMARK UNBOUND:                -0.576
REMARK SMILES Nc1ccc(S(=O)(=O)N=c2cnc3ccccc3[nH]2)cc1
REMARK SMILES IDX 6 1 7 2 8 3 9 4 10 5 19 6 18 7 11 8 17 9 13 10 12 11 16 12
REMARK SMILES IDX 14 13 15 14 5 16 4 17 20 18 3 19 21 20 2 21 1 22
REMARK H PARENT 19 15 1 23 1 24
ROOT
ATOM      1  S   UNL     1      21.589  32.675  13.542  1.00  0.00     0.284 S 
ATOM      2  O   UNL     1      20.850  31.874  14.498  1.00  0.00    -0.199 OA
ATOM      3  O   UNL     1      22.863  32.192  13.033  1.00  0.00    -0.199 OA
ENDROOT
BRANCH   1   4
ATOM      4  N   UNL     1      20.617  33.043  12.305  1.00  0.00    -0.140 NA
BRANCH   4   5
ATOM      5  C   UNL     1      20.865  32.576  11.128  1.00  0.00     0.162 A 
ATOM      6  N   UNL     1      20.694  31.304  10.632  1.00  0.00    -0.336 N 
ATOM      7  C   UNL     1      21.211  30.963   9.372  1.00  0.00     0.066 A 
ATOM      8  C   UNL     1      21.447  33.604  10.168  1.00  0.00     0.159 A 
ATOM      9  C   UNL     1      21.104  29.654   8.888  1.00  0.00     0.028 A 
ATOM     10  C   UNL     1      21.765  31.969   8.552  1.00  0.00     0.087 A 
ATOM     11  N   UNL     1      21.867  33.311   8.976  1.00  0.00    -0.251 NA
ATOM     12  C   UNL     1      21.576  29.336   7.613  1.00  0.00     0.002 A 
ATOM     13  C   UNL     1      22.233  31.636   7.279  1.00  0.00     0.030 A 
ATOM     14  C   UNL     1      22.143  30.325   6.811  1.00  0.00     0.002 A 
ATOM     15  H   UNL     1      20.533  30.543  11.288  1.00  0.00     0.168 HD
ENDBRANCH   4   5
ENDBRANCH   1   4
BRANCH   1  16
ATOM     16  C   UNL     1      21.893  34.253  14.304  1.00  0.00     0.089 A 
ATOM     17  C   UNL     1      21.832  34.379  15.693  1.00  0.00     0.024 A 
ATOM     18  C   UNL     1      22.181  35.361  13.503  1.00  0.00     0.024 A 
ATOM     19  C   UNL     1      22.063  35.626  16.279  1.00  0.00     0.027 A 
ATOM     20  C   UNL     1      22.410  36.601  14.104  1.00  0.00     0.027 A 
ATOM     21  C   UNL     1      22.305  36.756  15.490  1.00  0.00     0.031 A 
BRANCH  21  22
ATOM     22  N   UNL     1      22.654  37.971  16.089  1.00  0.00    -0.399 N 
ATOM     23  H   UNL     1      23.519  38.371  15.741  1.00  0.00     0.156 HD
ATOM     24  H   UNL     1      21.900  38.652  16.114  1.00  0.00     0.156 HD
ENDBRANCH  21  22
ENDBRANCH   1  16
TORSDOF 4
ENDMDL
MODEL 8
REMARK VINA RESULT:    -5.452      2.326      7.009
REMARK INTER + INTRA:          -7.143
REMARK INTER:                  -6.604
REMARK INTRA:                  -0.539
REMARK UNBOUND:                -0.576
REMARK SMILES Nc1ccc(S(=O)(=O)N=c2cnc3ccccc3[nH]2)cc1
REMARK SMILES IDX 6 1 7 2 8 3 9 4 10 5 19 6 18 7 11 8 17 9 13 10 12 11 16 12
REMARK SMILES IDX 14 13 15 14 5 16 4 17 20 18 3 19 21 20 2 21 1 22
REMARK H PARENT 19 15 1 23 1 24
ROOT
ATOM      1  S   UNL     1      21.861  33.343  13.302  1.00  0.00     0.284 S 
ATOM      2  O   UNL     1      21.172  33.374  14.577  1.00  0.00    -0.199 OA
ATOM      3  O   UNL     1      22.944  32.395  13.094  1.00  0.00    -0.199 OA
ENDROOT
BRANCH   1   4
ATOM      4  N   UNL     1      20.770  33.186  12.121  1.00  0.00    -0.140 NA
BRANCH   4   5
ATOM      5  C   UNL     1      21.008  32.406  11.122  1.00  0.00     0.162 A 
ATOM      6  N   UNL     1      21.695  32.654   9.956  1.00  0.00    -0.336 N 
ATOM      7  C   UNL     1      21.672  31.717   8.910  1.00  0.00     0.066 A 
ATOM      8  C   UNL     1      20.417  31.011  11.275  1.00  0.00     0.159 A 
ATOM      9  C   UNL     1      22.310  31.989   7.694  1.00  0.00     0.028 A 
ATOM     10  C   UNL     1      21.076  30.455   9.121  1.00  0.00     0.087 A 
ATOM     11  N   UNL     1      20.450  30.114  10.338  1.00  0.00    -0.251 NA
ATOM     12  C   UNL     1      22.324  31.031   6.679  1.00  0.00     0.002 A 
ATOM     13  C   UNL     1      21.099  29.506   8.096  1.00  0.00     0.030 A 
ATOM     14  C   UNL     1      21.716  29.793   6.878  1.00  0.00     0.002 A 
ATOM     15  H   UNL     1      21.902  33.619   9.708  1.00  0.00     0.168 HD
ENDBRANCH   4   5
ENDBRANCH   1   4
BRANCH   1  16
ATOM     16  C   UNL     1      22.527  34.970  13.026  1.00  0.00     0.089 A 
ATOM     17  C   UNL     1      23.456  35.178  12.005  1.00  0.00     0.024 A 
ATOM     18  C   UNL     1      22.121  36.027  13.844  1.00  0.00     0.024 A 
ATOM     19  C   UNL     1      23.980  36.458  11.805  1.00  0.00     0.027 A 
ATOM     20  C   UNL     1      22.654  37.302  13.631  1.00  0.00     0.027 A 
ATOM     21  C   UNL     1      23.621  37.519  12.645  1.00  0.00     0.031 A 
BRANCH  21  22
ATOM     22  N   UNL     1      24.056  38.818  12.362  1.00  0.00    -0.399 N 
ATOM     23  H   UNL     1      24.391  38.944  11.412  1.00  0.00     0.156 HD
ATOM     24  H   UNL     1      23.401  39.543  12.637  1.00  0.00     0.156 HD
ENDBRANCH  21  22
ENDBRANCH   1  16
TORSDOF 4
ENDMDL
MODEL 9
REMARK VINA RESULT:    -5.371      2.339      3.164
REMARK INTER + INTRA:          -7.046
REMARK INTER:                  -6.495
REMARK INTRA:                  -0.551
REMARK UNBOUND:                -0.576
REMARK SMILES Nc1ccc(S(=O)(=O)N=c2cnc3ccccc3[nH]2)cc1
REMARK SMILES IDX 6 1 7 2 8 3 9 4 10 5 19 6 18 7 11 8 17 9 13 10 12 11 16 12
REMARK SMILES IDX 14 13 15 14 5 16 4 17 20 18 3 19 21 20 2 21 1 22
REMARK H PARENT 19 15 1 23 1 24
ROOT
ATOM      1  S   UNL     1      21.510  30.736  10.069  1.00  0.00     0.284 S 
ATOM      2  O   UNL     1      22.544  30.196  10.930  1.00  0.00    -0.199 OA
ATOM      3  O   UNL     1      20.716  29.835   9.248  1.00  0.00    -0.199 OA
ENDROOT
BRANCH   1   4
ATOM      4  N   UNL     1      20.531  31.671  10.950  1.00  0.00    -0.140 NA
BRANCH   4   5
ATOM      5  C   UNL     1      20.871  32.013  12.147  1.00  0.00     0.162 A 
ATOM      6  N   UNL     1      21.033  31.237  13.271  1.00  0.00    -0.336 N 
ATOM      7  C   UNL     1      21.221  31.841  14.524  1.00  0.00     0.066 A 
ATOM      8  C   UNL     1      21.107  33.508  12.317  1.00  0.00     0.159 A 
ATOM      9  C   UNL     1      21.319  31.063  15.684  1.00  0.00     0.028 A 
ATOM     10  C   UNL     1      21.401  33.239  14.602  1.00  0.00     0.087 A 
ATOM     11  N   UNL     1      21.347  34.067  13.462  1.00  0.00    -0.251 NA
ATOM     12  C   UNL     1      21.556  31.670  16.919  1.00  0.00     0.002 A 
ATOM     13  C   UNL     1      21.638  33.832  15.844  1.00  0.00     0.030 A 
ATOM     14  C   UNL     1      21.712  33.053  16.999  1.00  0.00     0.002 A 
ATOM     15  H   UNL     1      20.667  30.287  13.265  1.00  0.00     0.168 HD
ENDBRANCH   4   5
ENDBRANCH   1   4
BRANCH   1  16
ATOM     16  C   UNL     1      22.296  31.892   8.968  1.00  0.00     0.089 A 
ATOM     17  C   UNL     1      21.842  33.211   8.905  1.00  0.00     0.024 A 
ATOM     18  C   UNL     1      23.357  31.467   8.167  1.00  0.00     0.024 A 
ATOM     19  C   UNL     1      22.460  34.107   8.029  1.00  0.00     0.027 A 
ATOM     20  C   UNL     1      23.966  32.375   7.296  1.00  0.00     0.027 A 
ATOM     21  C   UNL     1      23.493  33.687   7.184  1.00  0.00     0.031 A 
BRANCH  21  22
ATOM     22  N   UNL     1      24.184  34.618   6.401  1.00  0.00    -0.399 N 
ATOM     23  H   UNL     1      25.147  34.362   6.208  1.00  0.00     0.156 HD
ATOM     24  H   UNL     1      23.687  34.904   5.563  1.00  0.00     0.156 HD
ENDBRANCH  21  22
ENDBRANCH   1  16
TORSDOF 4
ENDMDL
