MODEL 1
REMARK VINA RESULT:    -4.924      0.000      0.000
REMARK INTER + INTRA:          -6.152
REMARK INTER:                  -5.932
REMARK INTRA:                  -0.220
REMARK UNBOUND:                -0.220
REMARK SMILES NC(=[NH2+])N/N=C/c1c(Cl)cccc1Cl
REMARK SMILES IDX 5 1 4 2 2 3 1 4 3 8 6 11 7 12 8 13 13 14 10 15 12 16 11 17
REMARK SMILES IDX 9 18 14 19
REMARK H PARENT 1 5 1 6 4 7 3 9 3 10
ROOT
ATOM      1  N   UNL     1      20.771  33.277  11.477  1.00  0.00    -0.121 NA
ENDROOT
BRANCH   1   2
ATOM      2  N   UNL     1      20.539  32.862  12.754  1.00  0.00    -0.157 N 
ATOM      3  C   UNL     1      20.828  33.733  13.764  1.00  0.00     0.362 C 
ATOM      4  N   UNL     1      20.603  33.403  15.040  1.00  0.00    -0.289 N 
ATOM      5  H   UNL     1      20.819  34.049  15.788  1.00  0.00     0.256 HD
ATOM      6  H   UNL     1      20.209  32.509  15.298  1.00  0.00     0.256 HD
ATOM      7  H   UNL     1      20.164  31.946  12.986  1.00  0.00     0.295 HD
BRANCH   3   8
ATOM      8  N   UNL     1      21.347  34.931  13.477  1.00  0.00    -0.289 N 
ATOM      9  H   UNL     1      22.121  34.941  12.817  1.00  0.00     0.256 HD
ATOM     10  H   UNL     1      21.028  35.799  13.880  1.00  0.00     0.256 HD
ENDBRANCH   3   8
ENDBRANCH   1   2
BRANCH   1  11
ATOM     11  C   UNL     1      21.768  32.704  10.876  1.00  0.00     0.161 C 
BRANCH  11  12
ATOM     12  C   UNL     1      21.602  31.837   9.684  1.00  0.00     0.033 A 
ATOM     13  C   UNL     1      21.893  32.371   8.416  1.00  0.00     0.051 A 
ATOM     14  C   UNL     1      21.158  30.505   9.769  1.00  0.00     0.051 A 
ATOM     15  C   UNL     1      21.750  31.591   7.263  1.00  0.00     0.021 A 
ATOM     16  C   UNL     1      21.019  29.733   8.608  1.00  0.00     0.021 A 
ATOM     17  C   UNL     1      21.314  30.273   7.359  1.00  0.00     0.003 A 
ATOM     18  Cl  UNL     1      22.476  33.986   8.190  1.00  0.00    -0.084 Cl
ATOM     19  Cl  UNL     1      20.708  29.733  11.252  1.00  0.00    -0.084 Cl
ENDBRANCH  11  12
ENDBRANCH   1  11
TORSDOF 4
ENDMDL
MODEL 2
REMARK VINA RESULT:    -4.893      0.058      2.457
REMARK INTER + INTRA:          -6.114
REMARK INTER:                  -5.906
REMARK INTRA:                  -0.208
REMARK UNBOUND:                -0.220
REMARK SMILES NC(=[NH2+])N/N=C/c1c(Cl)cccc1Cl
REMARK SMILES IDX 5 1 4 2 2 3 1 4 3 8 6 11 7 12 8 13 13 14 10 15 12 16 11 17
REMARK SMILES IDX 9 18 14 19
REMARK H PARENT 1 5 1 6 4 7 3 9 3 10
ROOT
ATOM      1  N   UNL     1      20.760  33.240  11.491  1.00  0.00    -0.121 NA
ENDROOT
BRANCH   1   2
ATOM      2  N   UNL     1      20.477  32.841  12.763  1.00  0.00    -0.157 N 
ATOM      3  C   UNL     1      20.767  33.707  13.778  1.00  0.00     0.362 C 
ATOM      4  N   UNL     1      20.493  33.392  15.048  1.00  0.00    -0.289 N 
ATOM      5  H   UNL     1      20.711  34.034  15.798  1.00  0.00     0.256 HD
ATOM      6  H   UNL     1      20.060  32.514  15.298  1.00  0.00     0.256 HD
ATOM      7  H   UNL     1      20.062  31.940  12.988  1.00  0.00     0.295 HD
BRANCH   3   8
ATOM      8  N   UNL     1      21.336  34.884  13.500  1.00  0.00    -0.289 N 
ATOM      9  H   UNL     1      22.352  34.916  13.549  1.00  0.00     0.256 HD
ATOM     10  H   UNL     1      20.825  35.720  13.265  1.00  0.00     0.256 HD
ENDBRANCH   3   8
ENDBRANCH   1   2
BRANCH   1  11
ATOM     11  C   UNL     1      21.752  32.628  10.922  1.00  0.00     0.161 C 
BRANCH  11  12
ATOM     12  C   UNL     1      21.608  31.852   9.666  1.00  0.00     0.033 A 
ATOM     13  C   UNL     1      21.181  30.514   9.746  1.00  0.00     0.051 A 
ATOM     14  C   UNL     1      21.887  32.397   8.400  1.00  0.00     0.051 A 
ATOM     15  C   UNL     1      21.031  29.744   8.587  1.00  0.00     0.021 A 
ATOM     16  C   UNL     1      21.733  31.616   7.247  1.00  0.00     0.021 A 
ATOM     17  C   UNL     1      21.306  30.294   7.339  1.00  0.00     0.003 A 
ATOM     18  Cl  UNL     1      20.778  29.746  11.244  1.00  0.00    -0.084 Cl
ATOM     19  Cl  UNL     1      22.474  34.007   8.153  1.00  0.00    -0.084 Cl
ENDBRANCH  11  12
ENDBRANCH   1  11
TORSDOF 4
ENDMDL
MODEL 3
REMARK VINA RESULT:    -4.817      2.542      3.114
REMARK INTER + INTRA:          -6.023
REMARK INTER:                  -5.654
REMARK INTRA:                  -0.370
REMARK UNBOUND:                -0.220
REMARK SMILES NC(=[NH2+])N/N=C/c1c(Cl)cccc1Cl
REMARK SMILES IDX 5 1 4 2 2 3 1 4 3 8 6 11 7 12 8 13 13 14 10 15 12 16 11 17
REMARK SMILES IDX 9 18 14 19
REMARK H PARENT 1 5 1 6 4 7 3 9 3 10
ROOT
ATOM      1  N   UNL     1      21.088  29.778  11.825  1.00  0.00    -0.121 NA
ENDROOT
BRANCH   1   2
ATOM      2  N   UNL     1      20.504  29.874  13.053  1.00  0.00    -0.157 N 
ATOM      3  C   UNL     1      21.214  30.487  14.045  1.00  0.00     0.362 C 
ATOM      4  N   UNL     1      20.693  30.639  15.267  1.00  0.00    -0.289 N 
ATOM      5  H   UNL     1      21.221  31.092  16.001  1.00  0.00     0.256 HD
ATOM      6  H   UNL     1      19.764  30.314  15.495  1.00  0.00     0.256 HD
ATOM      7  H   UNL     1      19.576  29.516  13.260  1.00  0.00     0.295 HD
BRANCH   3   8
ATOM      8  N   UNL     1      22.446  30.939  13.794  1.00  0.00    -0.289 N 
ATOM      9  H   UNL     1      22.515  31.895  13.454  1.00  0.00     0.256 HD
ATOM     10  H   UNL     1      23.285  30.393  13.911  1.00  0.00     0.256 HD
ENDBRANCH   3   8
ENDBRANCH   1   2
BRANCH   1  11
ATOM     11  C   UNL     1      20.452  30.363  10.857  1.00  0.00     0.161 C 
BRANCH  11  12
ATOM     12  C   UNL     1      21.089  31.354   9.956  1.00  0.00     0.033 A 
ATOM     13  C   UNL     1      21.500  30.935   8.677  1.00  0.00     0.051 A 
ATOM     14  C   UNL     1      21.305  32.692  10.329  1.00  0.00     0.051 A 
ATOM     15  C   UNL     1      22.105  31.835   7.793  1.00  0.00     0.021 A 
ATOM     16  C   UNL     1      21.912  33.584   9.436  1.00  0.00     0.021 A 
ATOM     17  C   UNL     1      22.311  33.159   8.172  1.00  0.00     0.003 A 
ATOM     18  Cl  UNL     1      21.259  29.322   8.096  1.00  0.00    -0.084 Cl
ATOM     19  Cl  UNL     1      20.904  33.333  11.887  1.00  0.00    -0.084 Cl
ENDBRANCH  11  12
ENDBRANCH   1  11
TORSDOF 4
ENDMDL
MODEL 4
REMARK VINA RESULT:    -4.403      3.127      4.707
REMARK INTER + INTRA:          -5.524
REMARK INTER:                  -5.275
REMARK INTRA:                  -0.249
REMARK UNBOUND:                -0.220
REMARK SMILES NC(=[NH2+])N/N=C/c1c(Cl)cccc1Cl
REMARK SMILES IDX 5 1 4 2 2 3 1 4 3 8 6 11 7 12 8 13 13 14 10 15 12 16 11 17
REMARK SMILES IDX 9 18 14 19
REMARK H PARENT 1 5 1 6 4 7 3 9 3 10
ROOT
ATOM      1  N   UNL     1      22.256  33.355   9.477  1.00  0.00    -0.121 NA
ENDROOT
BRANCH   1   2
ATOM      2  N   UNL     1      22.121  33.798   8.195  1.00  0.00    -0.157 N 
ATOM      3  C   UNL     1      22.695  34.994   7.876  1.00  0.00     0.362 C 
ATOM      4  N   UNL     1      22.624  35.478   6.631  1.00  0.00    -0.289 N 
ATOM      5  H   UNL     1      23.048  36.366   6.396  1.00  0.00     0.256 HD
ATOM      6  H   UNL     1      22.153  34.977   5.890  1.00  0.00     0.256 HD
ATOM      7  H   UNL     1      21.620  33.284   7.476  1.00  0.00     0.295 HD
BRANCH   3   8
ATOM      8  N   UNL     1      23.333  35.694   8.817  1.00  0.00    -0.289 N 
ATOM      9  H   UNL     1      24.149  36.221   8.513  1.00  0.00     0.256 HD
ATOM     10  H   UNL     1      23.064  35.717   9.789  1.00  0.00     0.256 HD
ENDBRANCH   3   8
ENDBRANCH   1   2
BRANCH   1  11
ATOM     11  C   UNL     1      21.150  33.039  10.078  1.00  0.00     0.161 C 
BRANCH  11  12
ATOM     12  C   UNL     1      21.074  32.000  11.134  1.00  0.00     0.033 A 
ATOM     13  C   UNL     1      21.150  32.400  12.480  1.00  0.00     0.051 A 
ATOM     14  C   UNL     1      20.935  30.631  10.843  1.00  0.00     0.051 A 
ATOM     15  C   UNL     1      21.083  31.454  13.509  1.00  0.00     0.021 A 
ATOM     16  C   UNL     1      20.868  29.693  11.882  1.00  0.00     0.021 A 
ATOM     17  C   UNL     1      20.942  30.102  13.211  1.00  0.00     0.003 A 
ATOM     18  Cl  UNL     1      21.291  34.058  12.959  1.00  0.00    -0.084 Cl
ATOM     19  Cl  UNL     1      20.885  29.988   9.237  1.00  0.00    -0.084 Cl
ENDBRANCH  11  12
ENDBRANCH   1  11
TORSDOF 4
ENDMDL
MODEL 5
REMARK VINA RESULT:    -4.359      3.406      5.840
REMARK INTER + INTRA:          -5.472
REMARK INTER:                  -5.158
REMARK INTRA:                  -0.314
REMARK UNBOUND:                -0.220
REMARK SMILES NC(=[NH2+])N/N=C/c1c(Cl)cccc1Cl
REMARK SMILES IDX 5 1 4 2 2 3 1 4 3 8 6 11 7 12 8 13 13 14 10 15 12 16 11 17
REMARK SMILES IDX 9 18 14 19
REMARK H PARENT 1 5 1 6 4 7 3 9 3 10
ROOT
ATOM      1  N   UNL     1      21.470  29.615   9.126  1.00  0.00    -0.121 NA
ENDROOT
BRANCH   1   2
ATOM      2  N   UNL     1      20.901  29.441   7.900  1.00  0.00    -0.157 N 
ATOM      3  C   UNL     1      21.581  29.909   6.813  1.00  0.00     0.362 C 
ATOM      4  N   UNL     1      21.094  29.751   5.579  1.00  0.00    -0.289 N 
ATOM      5  H   UNL     1      21.598  30.100   4.775  1.00  0.00     0.256 HD
ATOM      6  H   UNL     1      20.217  29.278   5.408  1.00  0.00     0.256 HD
ATOM      7  H   UNL     1      20.004  28.982   7.760  1.00  0.00     0.295 HD
BRANCH   3   8
ATOM      8  N   UNL     1      22.748  30.538   6.984  1.00  0.00    -0.289 N 
ATOM      9  H   UNL     1      22.772  31.255   7.705  1.00  0.00     0.256 HD
ATOM     10  H   UNL     1      23.577  30.351   6.442  1.00  0.00     0.256 HD
ENDBRANCH   3   8
ENDBRANCH   1   2
BRANCH   1  11
ATOM     11  C   UNL     1      20.797  30.350   9.955  1.00  0.00     0.161 C 
BRANCH  11  12
ATOM     12  C   UNL     1      21.439  31.293  10.903  1.00  0.00     0.033 A 
ATOM     13  C   UNL     1      21.577  30.907  12.249  1.00  0.00     0.051 A 
ATOM     14  C   UNL     1      21.909  32.560  10.513  1.00  0.00     0.051 A 
ATOM     15  C   UNL     1      22.176  31.764  13.178  1.00  0.00     0.021 A 
ATOM     16  C   UNL     1      22.507  33.410  11.453  1.00  0.00     0.021 A 
ATOM     17  C   UNL     1      22.641  33.014  12.781  1.00  0.00     0.003 A 
ATOM     18  Cl  UNL     1      21.064  29.362  12.838  1.00  0.00    -0.084 Cl
ATOM     19  Cl  UNL     1      21.756  33.192   8.909  1.00  0.00    -0.084 Cl
ENDBRANCH  11  12
ENDBRANCH   1  11
TORSDOF 4
ENDMDL
MODEL 6
REMARK VINA RESULT:    -4.208     10.970     11.893
REMARK INTER + INTRA:          -5.289
REMARK INTER:                  -5.006
REMARK INTRA:                  -0.283
REMARK UNBOUND:                -0.220
REMARK SMILES NC(=[NH2+])N/N=C/c1c(Cl)cccc1Cl
REMARK SMILES IDX 5 1 4 2 2 3 1 4 3 8 6 11 7 12 8 13 13 14 10 15 12 16 11 17
REMARK SMILES IDX 9 18 14 19
REMARK H PARENT 1 5 1 6 4 7 3 9 3 10
ROOT
ATOM      1  N   UNL     1      19.417  43.867  11.019  1.00  0.00    -0.121 NA
ENDROOT
BRANCH   1   2
ATOM      2  N   UNL     1      18.357  43.788  10.166  1.00  0.00    -0.157 N 
ATOM      3  C   UNL     1      18.163  44.824   9.298  1.00  0.00     0.362 C 
ATOM      4  N   UNL     1      17.158  44.801   8.417  1.00  0.00    -0.289 N 
ATOM      5  H   UNL     1      17.015  45.571   7.776  1.00  0.00     0.256 HD
ATOM      6  H   UNL     1      16.518  44.022   8.358  1.00  0.00     0.256 HD
ATOM      7  H   UNL     1      17.713  43.002  10.146  1.00  0.00     0.295 HD
BRANCH   3   8
ATOM      8  N   UNL     1      18.985  45.876   9.331  1.00  0.00    -0.289 N 
ATOM      9  H   UNL     1      18.670  46.678   9.873  1.00  0.00     0.256 HD
ATOM     10  H   UNL     1      19.871  45.920   8.851  1.00  0.00     0.256 HD
ENDBRANCH   3   8
ENDBRANCH   1   2
BRANCH   1  11
ATOM     11  C   UNL     1      20.005  42.742  11.285  1.00  0.00     0.161 C 
BRANCH  11  12
ATOM     12  C   UNL     1      20.247  42.265  12.668  1.00  0.00     0.033 A 
ATOM     13  C   UNL     1      21.494  42.527  13.263  1.00  0.00     0.051 A 
ATOM     14  C   UNL     1      19.283  41.556  13.407  1.00  0.00     0.051 A 
ATOM     15  C   UNL     1      21.767  42.096  14.566  1.00  0.00     0.021 A 
ATOM     16  C   UNL     1      19.568  41.129  14.711  1.00  0.00     0.021 A 
ATOM     17  C   UNL     1      20.805  41.398  15.290  1.00  0.00     0.003 A 
ATOM     18  Cl  UNL     1      22.746  43.418  12.464  1.00  0.00    -0.084 Cl
ATOM     19  Cl  UNL     1      17.729  41.111  12.786  1.00  0.00    -0.084 Cl
ENDBRANCH  11  12
ENDBRANCH   1  11
TORSDOF 4
ENDMDL
MODEL 7
REMARK VINA RESULT:    -4.124      2.866      5.391
REMARK INTER + INTRA:          -5.189
REMARK INTER:                  -4.906
REMARK INTRA:                  -0.283
REMARK UNBOUND:                -0.220
REMARK SMILES NC(=[NH2+])N/N=C/c1c(Cl)cccc1Cl
REMARK SMILES IDX 5 1 4 2 2 3 1 4 3 8 6 11 7 12 8 13 13 14 10 15 12 16 11 17
REMARK SMILES IDX 9 18 14 19
REMARK H PARENT 1 5 1 6 4 7 3 9 3 10
ROOT
ATOM      1  N   UNL     1      21.353  30.808   9.711  1.00  0.00    -0.121 NA
ENDROOT
BRANCH   1   2
ATOM      2  N   UNL     1      21.548  31.205   8.422  1.00  0.00    -0.157 N 
ATOM      3  C   UNL     1      21.297  30.295   7.435  1.00  0.00     0.362 C 
ATOM      4  N   UNL     1      21.444  30.623   6.147  1.00  0.00    -0.289 N 
ATOM      5  H   UNL     1      21.260  29.947   5.417  1.00  0.00     0.256 HD
ATOM      6  H   UNL     1      21.735  31.548   5.862  1.00  0.00     0.256 HD
ATOM      7  H   UNL     1      21.865  32.135   8.164  1.00  0.00     0.295 HD
BRANCH   3   8
ATOM      8  N   UNL     1      20.905  29.060   7.758  1.00  0.00    -0.289 N 
ATOM      9  H   UNL     1      20.216  28.986   8.503  1.00  0.00     0.256 HD
ATOM     10  H   UNL     1      21.256  28.221   7.323  1.00  0.00     0.256 HD
ENDBRANCH   3   8
ENDBRANCH   1   2
BRANCH   1  11
ATOM     11  C   UNL     1      22.254  31.200  10.558  1.00  0.00     0.161 C 
BRANCH  11  12
ATOM     12  C   UNL     1      21.933  32.000  11.765  1.00  0.00     0.033 A 
ATOM     13  C   UNL     1      22.205  33.380  11.751  1.00  0.00     0.051 A 
ATOM     14  C   UNL     1      21.374  31.434  12.925  1.00  0.00     0.051 A 
ATOM     15  C   UNL     1      21.920  34.174  12.867  1.00  0.00     0.021 A 
ATOM     16  C   UNL     1      21.091  32.239  14.037  1.00  0.00     0.021 A 
ATOM     17  C   UNL     1      21.363  33.605  14.009  1.00  0.00     0.003 A 
ATOM     18  Cl  UNL     1      22.863  34.192  10.371  1.00  0.00    -0.084 Cl
ATOM     19  Cl  UNL     1      21.038  29.745  13.107  1.00  0.00    -0.084 Cl
ENDBRANCH  11  12
ENDBRANCH   1  11
TORSDOF 4
ENDMDL
MODEL 8
REMARK VINA RESULT:    -4.048      1.541      2.153
REMARK INTER + INTRA:          -5.097
REMARK INTER:                  -4.795
REMARK INTRA:                  -0.302
REMARK UNBOUND:                -0.220
REMARK SMILES NC(=[NH2+])N/N=C/c1c(Cl)cccc1Cl
REMARK SMILES IDX 5 1 4 2 2 3 1 4 3 8 6 11 7 12 8 13 13 14 10 15 12 16 11 17
REMARK SMILES IDX 9 18 14 19
REMARK H PARENT 1 5 1 6 4 7 3 9 3 10
ROOT
ATOM      1  N   UNL     1      21.089  31.834  12.468  1.00  0.00    -0.121 NA
ENDROOT
BRANCH   1   2
ATOM      2  N   UNL     1      20.929  32.938  13.251  1.00  0.00    -0.157 N 
ATOM      3  C   UNL     1      20.828  32.749  14.599  1.00  0.00     0.362 C 
ATOM      4  N   UNL     1      20.695  33.789  15.429  1.00  0.00    -0.289 N 
ATOM      5  H   UNL     1      20.618  33.647  16.427  1.00  0.00     0.256 HD
ATOM      6  H   UNL     1      20.672  34.741  15.092  1.00  0.00     0.256 HD
ATOM      7  H   UNL     1      20.885  33.884  12.882  1.00  0.00     0.295 HD
BRANCH   3   8
ATOM      8  N   UNL     1      20.858  31.510  15.097  1.00  0.00    -0.289 N 
ATOM      9  H   UNL     1      21.777  31.081  15.184  1.00  0.00     0.256 HD
ATOM     10  H   UNL     1      20.040  30.988  15.371  1.00  0.00     0.256 HD
ENDBRANCH   3   8
ENDBRANCH   1   2
BRANCH   1  11
ATOM     11  C   UNL     1      22.160  31.819  11.736  1.00  0.00     0.161 C 
BRANCH  11  12
ATOM     12  C   UNL     1      22.172  32.244  10.315  1.00  0.00     0.033 A 
ATOM     13  C   UNL     1      22.675  33.519   9.997  1.00  0.00     0.051 A 
ATOM     14  C   UNL     1      21.695  31.428   9.273  1.00  0.00     0.051 A 
ATOM     15  C   UNL     1      22.706  33.962   8.670  1.00  0.00     0.021 A 
ATOM     16  C   UNL     1      21.731  31.882   7.949  1.00  0.00     0.021 A 
ATOM     17  C   UNL     1      22.235  33.145   7.646  1.00  0.00     0.003 A 
ATOM     18  Cl  UNL     1      23.317  34.597  11.189  1.00  0.00    -0.084 Cl
ATOM     19  Cl  UNL     1      20.996  29.863   9.520  1.00  0.00    -0.084 Cl
ENDBRANCH  11  12
ENDBRANCH   1  11
TORSDOF 4
ENDMDL
MODEL 9
REMARK VINA RESULT:    -4.043     10.523     11.671
REMARK INTER + INTRA:          -5.090
REMARK INTER:                  -4.697
REMARK INTRA:                  -0.393
REMARK UNBOUND:                -0.220
REMARK SMILES NC(=[NH2+])N/N=C/c1c(Cl)cccc1Cl
REMARK SMILES IDX 5 1 4 2 2 3 1 4 3 8 6 11 7 12 8 13 13 14 10 15 12 16 11 17
REMARK SMILES IDX 9 18 14 19
REMARK H PARENT 1 5 1 6 4 7 3 9 3 10
ROOT
ATOM      1  N   UNL     1      21.036  41.781  12.580  1.00  0.00    -0.121 NA
ENDROOT
BRANCH   1   2
ATOM      2  N   UNL     1      20.833  41.789  13.927  1.00  0.00    -0.157 N 
ATOM      3  C   UNL     1      19.565  41.554  14.377  1.00  0.00     0.362 C 
ATOM      4  N   UNL     1      19.298  41.524  15.686  1.00  0.00    -0.289 N 
ATOM      5  H   UNL     1      18.358  41.351  16.018  1.00  0.00     0.256 HD
ATOM      6  H   UNL     1      20.017  41.665  16.381  1.00  0.00     0.256 HD
ATOM      7  H   UNL     1      21.572  41.959  14.604  1.00  0.00     0.295 HD
BRANCH   3   8
ATOM      8  N   UNL     1      18.578  41.356  13.499  1.00  0.00    -0.289 N 
ATOM      9  H   UNL     1      18.220  42.183  13.029  1.00  0.00     0.256 HD
ATOM     10  H   UNL     1      18.173  40.455  13.294  1.00  0.00     0.256 HD
ENDBRANCH   3   8
ENDBRANCH   1   2
BRANCH   1  11
ATOM     11  C   UNL     1      21.303  42.933  12.047  1.00  0.00     0.161 C 
BRANCH  11  12
ATOM     12  C   UNL     1      20.300  43.725  11.294  1.00  0.00     0.033 A 
ATOM     13  C   UNL     1      20.098  43.436   9.932  1.00  0.00     0.051 A 
ATOM     14  C   UNL     1      19.549  44.758  11.883  1.00  0.00     0.051 A 
ATOM     15  C   UNL     1      19.163  44.158   9.182  1.00  0.00     0.021 A 
ATOM     16  C   UNL     1      18.615  45.473  11.122  1.00  0.00     0.021 A 
ATOM     17  C   UNL     1      18.421  45.175   9.776  1.00  0.00     0.003 A 
ATOM     18  Cl  UNL     1      20.941  42.169   9.108  1.00  0.00    -0.084 Cl
ATOM     19  Cl  UNL     1      19.731  45.262  13.530  1.00  0.00    -0.084 Cl
ENDBRANCH  11  12
ENDBRANCH   1  11
TORSDOF 4
ENDMDL
