MODEL 1
REMARK VINA RESULT:    -5.930      0.000      0.000
REMARK INTER + INTRA:          -8.179
REMARK INTER:                  -7.316
REMARK INTRA:                  -0.863
REMARK UNBOUND:                -0.863
REMARK SMILES CCOC(=O)c1cc(-c2ccccc2)nc2ccc(C)cc12
REMARK SMILES IDX 3 1 2 2 1 3 4 4 5 5 6 6 7 7 22 8 8 9 21 10 16 11 15 12 19 13
REMARK SMILES IDX 17 14 18 15 20 16 9 17 10 18 14 19 11 20 13 21 12 22
REMARK H PARENT
ROOT
ATOM      1  O   UNL     1      24.012  34.354   7.904  1.00  0.00    -0.462 OA
ENDROOT
BRANCH   1   2
ATOM      2  C   UNL     1      24.507  34.398   6.558  1.00  0.00     0.230 C 
ATOM      3  C   UNL     1      25.171  33.080   6.202  1.00  0.00     0.049 C 
ENDBRANCH   1   2
BRANCH   1   4
ATOM      4  C   UNL     1      22.664  34.459   8.038  1.00  0.00     0.338 C 
ATOM      5  O   UNL     1      21.943  35.266   7.478  1.00  0.00    -0.246 OA
BRANCH   4   6
ATOM      6  C   UNL     1      22.201  33.441   9.011  1.00  0.00     0.071 A 
ATOM      7  C   UNL     1      22.129  33.813  10.358  1.00  0.00     0.045 A 
ATOM      8  C   UNL     1      21.871  32.129   8.603  1.00  0.00     0.015 A 
ATOM      9  C   UNL     1      21.719  32.875  11.289  1.00  0.00     0.072 A 
ATOM     10  C   UNL     1      21.895  31.648   7.265  1.00  0.00     0.014 A 
ATOM     11  C   UNL     1      21.475  31.250   9.627  1.00  0.00     0.072 A 
ATOM     12  N   UNL     1      21.406  31.611  10.919  1.00  0.00    -0.248 NA
ATOM     13  C   UNL     1      21.557  30.327   6.952  1.00  0.00    -0.050 A 
ATOM     14  C   UNL     1      21.128  29.948   9.298  1.00  0.00     0.029 A 
ATOM     15  C   UNL     1      21.160  29.480   7.983  1.00  0.00     0.005 A 
ATOM     16  C   UNL     1      21.566  29.855   5.529  1.00  0.00     0.044 C 
BRANCH   9  17
ATOM     17  C   UNL     1      21.608  33.168  12.733  1.00  0.00     0.000 A 
ATOM     18  C   UNL     1      21.997  34.422  13.243  1.00  0.00     0.010 A 
ATOM     19  C   UNL     1      21.124  32.221  13.656  1.00  0.00     0.010 A 
ATOM     20  C   UNL     1      21.893  34.722  14.604  1.00  0.00     0.001 A 
ATOM     21  C   UNL     1      21.021  32.519  15.019  1.00  0.00     0.001 A 
ATOM     22  C   UNL     1      21.403  33.771  15.492  1.00  0.00     0.000 A 
ENDBRANCH   9  17
ENDBRANCH   4   6
ENDBRANCH   1   4
TORSDOF 4
ENDMDL
MODEL 2
REMARK VINA RESULT:    -5.393      3.104      7.524
REMARK INTER + INTRA:          -7.517
REMARK INTER:                  -6.860
REMARK INTRA:                  -0.657
REMARK UNBOUND:                -0.863
REMARK SMILES CCOC(=O)c1cc(-c2ccccc2)nc2ccc(C)cc12
REMARK SMILES IDX 3 1 2 2 1 3 4 4 5 5 6 6 7 7 22 8 8 9 21 10 16 11 15 12 19 13
REMARK SMILES IDX 17 14 18 15 20 16 9 17 10 18 14 19 11 20 13 21 12 22
REMARK H PARENT
ROOT
ATOM      1  O   UNL     1      22.620  30.561  15.326  1.00  0.00    -0.462 OA
ENDROOT
BRANCH   1   2
ATOM      2  C   UNL     1      23.363  31.131  16.413  1.00  0.00     0.230 C 
ATOM      3  C   UNL     1      23.070  30.378  17.698  1.00  0.00     0.049 C 
ENDBRANCH   1   2
BRANCH   1   4
ATOM      4  C   UNL     1      21.423  31.144  15.063  1.00  0.00     0.338 C 
ATOM      5  O   UNL     1      20.388  30.984  15.686  1.00  0.00    -0.246 OA
BRANCH   4   6
ATOM      6  C   UNL     1      21.563  31.999  13.859  1.00  0.00     0.071 A 
ATOM      7  C   UNL     1      21.480  31.380  12.607  1.00  0.00     0.045 A 
ATOM      8  C   UNL     1      21.805  33.388  13.966  1.00  0.00     0.015 A 
ATOM      9  C   UNL     1      21.628  32.153  11.469  1.00  0.00     0.072 A 
ATOM     10  C   UNL     1      21.896  34.119  15.182  1.00  0.00     0.014 A 
ATOM     11  C   UNL     1      21.950  34.081  12.752  1.00  0.00     0.072 A 
ATOM     12  N   UNL     1      21.868  33.483  11.551  1.00  0.00    -0.248 NA
ATOM     13  C   UNL     1      22.144  35.496  15.195  1.00  0.00    -0.050 A 
ATOM     14  C   UNL     1      22.181  35.448  12.781  1.00  0.00     0.029 A 
ATOM     15  C   UNL     1      22.274  36.160  13.978  1.00  0.00     0.005 A 
ATOM     16  C   UNL     1      22.208  36.247  16.491  1.00  0.00     0.044 C 
BRANCH   9  17
ATOM     17  C   UNL     1      21.555  31.597  10.102  1.00  0.00     0.000 A 
ATOM     18  C   UNL     1      21.863  32.397   8.984  1.00  0.00     0.010 A 
ATOM     19  C   UNL     1      21.170  30.265   9.853  1.00  0.00     0.010 A 
ATOM     20  C   UNL     1      21.806  31.888   7.683  1.00  0.00     0.001 A 
ATOM     21  C   UNL     1      21.112  29.755   8.552  1.00  0.00     0.001 A 
ATOM     22  C   UNL     1      21.433  30.566   7.468  1.00  0.00     0.000 A 
ENDBRANCH   9  17
ENDBRANCH   4   6
ENDBRANCH   1   4
TORSDOF 4
ENDMDL
MODEL 3
REMARK VINA RESULT:    -5.383      2.862      6.136
REMARK INTER + INTRA:          -7.505
REMARK INTER:                  -6.687
REMARK INTRA:                  -0.818
REMARK UNBOUND:                -0.863
REMARK SMILES CCOC(=O)c1cc(-c2ccccc2)nc2ccc(C)cc12
REMARK SMILES IDX 3 1 2 2 1 3 4 4 5 5 6 6 7 7 22 8 8 9 21 10 16 11 15 12 19 13
REMARK SMILES IDX 17 14 18 15 20 16 9 17 10 18 14 19 11 20 13 21 12 22
REMARK H PARENT
ROOT
ATOM      1  O   UNL     1      22.251  37.346   6.709  1.00  0.00    -0.462 OA
ENDROOT
BRANCH   1   2
ATOM      2  C   UNL     1      22.234  38.715   6.279  1.00  0.00     0.230 C 
ATOM      3  C   UNL     1      22.469  39.637   7.461  1.00  0.00     0.049 C 
ENDBRANCH   1   2
BRANCH   1   4
ATOM      4  C   UNL     1      23.480  36.828   6.969  1.00  0.00     0.338 C 
ATOM      5  O   UNL     1      24.518  37.106   6.395  1.00  0.00    -0.246 OA
BRANCH   4   6
ATOM      6  C   UNL     1      23.355  35.831   8.059  1.00  0.00     0.071 A 
ATOM      7  C   UNL     1      22.816  34.580   7.740  1.00  0.00     0.045 A 
ATOM      8  C   UNL     1      23.737  36.139   9.385  1.00  0.00     0.015 A 
ATOM      9  C   UNL     1      22.670  33.639   8.744  1.00  0.00     0.072 A 
ATOM     10  C   UNL     1      24.304  37.368   9.818  1.00  0.00     0.014 A 
ATOM     11  C   UNL     1      23.540  35.118  10.332  1.00  0.00     0.072 A 
ATOM     12  N   UNL     1      23.023  33.918  10.022  1.00  0.00    -0.248 NA
ATOM     13  C   UNL     1      24.649  37.589  11.156  1.00  0.00    -0.050 A 
ATOM     14  C   UNL     1      23.900  35.347  11.652  1.00  0.00     0.029 A 
ATOM     15  C   UNL     1      24.452  36.559  12.072  1.00  0.00     0.005 A 
ATOM     16  C   UNL     1      25.270  38.885  11.579  1.00  0.00     0.044 C 
BRANCH   9  17
ATOM     17  C   UNL     1      22.115  32.290   8.510  1.00  0.00     0.000 A 
ATOM     18  C   UNL     1      21.712  31.482   9.592  1.00  0.00     0.010 A 
ATOM     19  C   UNL     1      21.973  31.750   7.217  1.00  0.00     0.010 A 
ATOM     20  C   UNL     1      21.178  30.206   9.392  1.00  0.00     0.001 A 
ATOM     21  C   UNL     1      21.439  30.473   7.016  1.00  0.00     0.001 A 
ATOM     22  C   UNL     1      21.040  29.703   8.103  1.00  0.00     0.000 A 
ENDBRANCH   9  17
ENDBRANCH   4   6
ENDBRANCH   1   4
TORSDOF 4
ENDMDL
MODEL 4
REMARK VINA RESULT:    -5.335      2.554      5.322
REMARK INTER + INTRA:          -7.446
REMARK INTER:                  -6.564
REMARK INTRA:                  -0.881
REMARK UNBOUND:                -0.863
REMARK SMILES CCOC(=O)c1cc(-c2ccccc2)nc2ccc(C)cc12
REMARK SMILES IDX 3 1 2 2 1 3 4 4 5 5 6 6 7 7 22 8 8 9 21 10 16 11 15 12 19 13
REMARK SMILES IDX 17 14 18 15 20 16 9 17 10 18 14 19 11 20 13 21 12 22
REMARK H PARENT
ROOT
ATOM      1  O   UNL     1      23.385  30.519   7.225  1.00  0.00    -0.462 OA
ENDROOT
BRANCH   1   2
ATOM      2  C   UNL     1      23.543  29.172   7.695  1.00  0.00     0.230 C 
ATOM      3  C   UNL     1      24.470  29.144   8.897  1.00  0.00     0.049 C 
ENDBRANCH   1   2
BRANCH   1   4
ATOM      4  C   UNL     1      22.128  31.026   7.307  1.00  0.00     0.338 C 
ATOM      5  O   UNL     1      21.148  30.631   6.700  1.00  0.00    -0.246 OA
BRANCH   4   6
ATOM      6  C   UNL     1      22.138  32.175   8.245  1.00  0.00     0.071 A 
ATOM      7  C   UNL     1      22.569  33.412   7.753  1.00  0.00     0.045 A 
ATOM      8  C   UNL     1      21.758  32.025   9.597  1.00  0.00     0.015 A 
ATOM      9  C   UNL     1      22.607  34.496   8.613  1.00  0.00     0.072 A 
ATOM     10  C   UNL     1      21.294  30.823  10.197  1.00  0.00     0.014 A 
ATOM     11  C   UNL     1      21.840  33.184  10.390  1.00  0.00     0.072 A 
ATOM     12  N   UNL     1      22.253  34.371   9.914  1.00  0.00    -0.248 NA
ATOM     13  C   UNL     1      20.942  30.764  11.550  1.00  0.00    -0.050 A 
ATOM     14  C   UNL     1      21.474  33.112  11.725  1.00  0.00     0.029 A 
ATOM     15  C   UNL     1      21.025  31.927  12.310  1.00  0.00     0.005 A 
ATOM     16  C   UNL     1      20.431  29.489  12.150  1.00  0.00     0.044 C 
BRANCH   9  17
ATOM     17  C   UNL     1      23.043  35.844   8.192  1.00  0.00     0.000 A 
ATOM     18  C   UNL     1      23.863  36.626   9.029  1.00  0.00     0.010 A 
ATOM     19  C   UNL     1      22.659  36.407   6.960  1.00  0.00     0.010 A 
ATOM     20  C   UNL     1      24.293  37.900   8.647  1.00  0.00     0.001 A 
ATOM     21  C   UNL     1      23.086  37.682   6.577  1.00  0.00     0.001 A 
ATOM     22  C   UNL     1      23.906  38.427   7.420  1.00  0.00     0.000 A 
ENDBRANCH   9  17
ENDBRANCH   4   6
ENDBRANCH   1   4
TORSDOF 4
ENDMDL
MODEL 5
REMARK VINA RESULT:    -5.207      2.912      4.345
REMARK INTER + INTRA:          -7.287
REMARK INTER:                  -6.572
REMARK INTRA:                  -0.715
REMARK UNBOUND:                -0.863
REMARK SMILES CCOC(=O)c1cc(-c2ccccc2)nc2ccc(C)cc12
REMARK SMILES IDX 3 1 2 2 1 3 4 4 5 5 6 6 7 7 22 8 8 9 21 10 16 11 15 12 19 13
REMARK SMILES IDX 17 14 18 15 20 16 9 17 10 18 14 19 11 20 13 21 12 22
REMARK H PARENT
ROOT
ATOM      1  O   UNL     1      22.129  29.543  13.321  1.00  0.00    -0.462 OA
ENDROOT
BRANCH   1   2
ATOM      2  C   UNL     1      23.251  29.122  12.532  1.00  0.00     0.230 C 
ATOM      3  C   UNL     1      24.489  29.907  12.922  1.00  0.00     0.049 C 
ENDBRANCH   1   2
BRANCH   1   4
ATOM      4  C   UNL     1      21.092  30.080  12.628  1.00  0.00     0.338 C 
ATOM      5  O   UNL     1      20.065  29.509  12.305  1.00  0.00    -0.246 OA
BRANCH   4   6
ATOM      6  C   UNL     1      21.420  31.487  12.293  1.00  0.00     0.071 A 
ATOM      7  C   UNL     1      21.521  32.401  13.348  1.00  0.00     0.045 A 
ATOM      8  C   UNL     1      21.595  31.904  10.954  1.00  0.00     0.015 A 
ATOM      9  C   UNL     1      21.807  33.724  13.060  1.00  0.00     0.072 A 
ATOM     10  C   UNL     1      21.527  31.062   9.810  1.00  0.00     0.014 A 
ATOM     11  C   UNL     1      21.873  33.270  10.768  1.00  0.00     0.072 A 
ATOM     12  N   UNL     1      21.970  34.144  11.783  1.00  0.00    -0.248 NA
ATOM     13  C   UNL     1      21.709  31.562   8.517  1.00  0.00    -0.050 A 
ATOM     14  C   UNL     1      22.064  33.747   9.480  1.00  0.00     0.029 A 
ATOM     15  C   UNL     1      21.991  32.916   8.361  1.00  0.00     0.005 A 
ATOM     16  C   UNL     1      21.658  30.647   7.331  1.00  0.00     0.044 C 
BRANCH   9  17
ATOM     17  C   UNL     1      21.937  34.765  14.101  1.00  0.00     0.000 A 
ATOM     18  C   UNL     1      22.253  36.093  13.752  1.00  0.00     0.010 A 
ATOM     19  C   UNL     1      21.763  34.484  15.470  1.00  0.00     0.010 A 
ATOM     20  C   UNL     1      22.374  37.094  14.720  1.00  0.00     0.001 A 
ATOM     21  C   UNL     1      21.885  35.484  16.440  1.00  0.00     0.001 A 
ATOM     22  C   UNL     1      22.188  36.789  16.064  1.00  0.00     0.000 A 
ENDBRANCH   9  17
ENDBRANCH   4   6
ENDBRANCH   1   4
TORSDOF 4
ENDMDL
MODEL 6
REMARK VINA RESULT:    -5.163      1.737      6.209
REMARK INTER + INTRA:          -7.234
REMARK INTER:                  -6.588
REMARK INTRA:                  -0.646
REMARK UNBOUND:                -0.863
REMARK SMILES CCOC(=O)c1cc(-c2ccccc2)nc2ccc(C)cc12
REMARK SMILES IDX 3 1 2 2 1 3 4 4 5 5 6 6 7 7 22 8 8 9 21 10 16 11 15 12 19 13
REMARK SMILES IDX 17 14 18 15 20 16 9 17 10 18 14 19 11 20 13 21 12 22
REMARK H PARENT
ROOT
ATOM      1  O   UNL     1      22.852  35.605   8.532  1.00  0.00    -0.462 OA
ENDROOT
BRANCH   1   2
ATOM      2  C   UNL     1      23.649  36.712   8.086  1.00  0.00     0.230 C 
ATOM      3  C   UNL     1      23.052  37.312   6.826  1.00  0.00     0.049 C 
ENDBRANCH   1   2
BRANCH   1   4
ATOM      4  C   UNL     1      23.505  34.669   9.267  1.00  0.00     0.338 C 
ATOM      5  O   UNL     1      24.477  34.857   9.978  1.00  0.00    -0.246 OA
BRANCH   4   6
ATOM      6  C   UNL     1      22.861  33.352   9.043  1.00  0.00     0.071 A 
ATOM      7  C   UNL     1      23.094  32.713   7.821  1.00  0.00     0.045 A 
ATOM      8  C   UNL     1      22.014  32.772  10.015  1.00  0.00     0.015 A 
ATOM      9  C   UNL     1      22.487  31.492   7.579  1.00  0.00     0.072 A 
ATOM     10  C   UNL     1      21.720  33.326  11.291  1.00  0.00     0.014 A 
ATOM     11  C   UNL     1      21.441  31.536   9.670  1.00  0.00     0.072 A 
ATOM     12  N   UNL     1      21.667  30.924   8.495  1.00  0.00    -0.248 NA
ATOM     13  C   UNL     1      20.864  32.683  12.192  1.00  0.00    -0.050 A 
ATOM     14  C   UNL     1      20.606  30.905  10.579  1.00  0.00     0.029 A 
ATOM     15  C   UNL     1      20.315  31.456  11.829  1.00  0.00     0.005 A 
ATOM     16  C   UNL     1      20.591  33.277  13.541  1.00  0.00     0.044 C 
BRANCH   9  17
ATOM     17  C   UNL     1      22.670  30.736   6.323  1.00  0.00     0.000 A 
ATOM     18  C   UNL     1      21.624  29.951   5.800  1.00  0.00     0.010 A 
ATOM     19  C   UNL     1      23.881  30.755   5.605  1.00  0.00     0.010 A 
ATOM     20  C   UNL     1      21.774  29.234   4.609  1.00  0.00     0.001 A 
ATOM     21  C   UNL     1      24.033  30.037   4.414  1.00  0.00     0.001 A 
ATOM     22  C   UNL     1      22.978  29.279   3.916  1.00  0.00     0.000 A 
ENDBRANCH   9  17
ENDBRANCH   4   6
ENDBRANCH   1   4
TORSDOF 4
ENDMDL
MODEL 7
REMARK VINA RESULT:    -4.990      2.232      6.519
REMARK INTER + INTRA:          -7.020
REMARK INTER:                  -6.623
REMARK INTRA:                  -0.397
REMARK UNBOUND:                -0.863
REMARK SMILES CCOC(=O)c1cc(-c2ccccc2)nc2ccc(C)cc12
REMARK SMILES IDX 3 1 2 2 1 3 4 4 5 5 6 6 7 7 22 8 8 9 21 10 16 11 15 12 19 13
REMARK SMILES IDX 17 14 18 15 20 16 9 17 10 18 14 19 11 20 13 21 12 22
REMARK H PARENT
ROOT
ATOM      1  O   UNL     1      23.354  35.743  12.257  1.00  0.00    -0.462 OA
ENDROOT
BRANCH   1   2
ATOM      2  C   UNL     1      24.513  36.226  12.951  1.00  0.00     0.230 C 
ATOM      3  C   UNL     1      24.711  37.705  12.672  1.00  0.00     0.049 C 
ENDBRANCH   1   2
BRANCH   1   4
ATOM      4  C   UNL     1      22.293  35.417  13.041  1.00  0.00     0.338 C 
ATOM      5  O   UNL     1      21.724  36.152  13.829  1.00  0.00    -0.246 OA
BRANCH   4   6
ATOM      6  C   UNL     1      21.947  33.995  12.807  1.00  0.00     0.071 A 
ATOM      7  C   UNL     1      21.916  33.541  11.483  1.00  0.00     0.045 A 
ATOM      8  C   UNL     1      21.628  33.129  13.877  1.00  0.00     0.015 A 
ATOM      9  C   UNL     1      21.575  32.223  11.237  1.00  0.00     0.072 A 
ATOM     10  C   UNL     1      21.640  33.478  15.255  1.00  0.00     0.014 A 
ATOM     11  C   UNL     1      21.287  31.812  13.520  1.00  0.00     0.072 A 
ATOM     12  N   UNL     1      21.259  31.380  12.249  1.00  0.00    -0.248 NA
ATOM     13  C   UNL     1      21.303  32.555  16.251  1.00  0.00    -0.050 A 
ATOM     14  C   UNL     1      20.970  30.905  14.521  1.00  0.00     0.029 A 
ATOM     15  C   UNL     1      20.978  31.256  15.872  1.00  0.00     0.005 A 
ATOM     16  C   UNL     1      21.350  32.944  17.698  1.00  0.00     0.044 C 
BRANCH   9  17
ATOM     17  C   UNL     1      21.516  31.646   9.878  1.00  0.00     0.000 A 
ATOM     18  C   UNL     1      21.181  30.292   9.687  1.00  0.00     0.010 A 
ATOM     19  C   UNL     1      21.796  32.408   8.726  1.00  0.00     0.010 A 
ATOM     20  C   UNL     1      21.112  29.728   8.410  1.00  0.00     0.001 A 
ATOM     21  C   UNL     1      21.729  31.845   7.448  1.00  0.00     0.001 A 
ATOM     22  C   UNL     1      21.384  30.506   7.290  1.00  0.00     0.000 A 
ENDBRANCH   9  17
ENDBRANCH   4   6
ENDBRANCH   1   4
TORSDOF 4
ENDMDL
MODEL 8
REMARK VINA RESULT:    -4.988      3.125      6.403
REMARK INTER + INTRA:          -7.017
REMARK INTER:                  -6.164
REMARK INTRA:                  -0.853
REMARK UNBOUND:                -0.863
REMARK SMILES CCOC(=O)c1cc(-c2ccccc2)nc2ccc(C)cc12
REMARK SMILES IDX 3 1 2 2 1 3 4 4 5 5 6 6 7 7 22 8 8 9 21 10 16 11 15 12 19 13
REMARK SMILES IDX 17 14 18 15 20 16 9 17 10 18 14 19 11 20 13 21 12 22
REMARK H PARENT
ROOT
ATOM      1  O   UNL     1      23.719  36.399  12.111  1.00  0.00    -0.462 OA
ENDROOT
BRANCH   1   2
ATOM      2  C   UNL     1      24.196  37.465  12.943  1.00  0.00     0.230 C 
ATOM      3  C   UNL     1      23.787  38.806  12.362  1.00  0.00     0.049 C 
ENDBRANCH   1   2
BRANCH   1   4
ATOM      4  C   UNL     1      24.590  35.955  11.167  1.00  0.00     0.338 C 
ATOM      5  O   UNL     1      25.803  35.908  11.268  1.00  0.00    -0.246 OA
BRANCH   4   6
ATOM      6  C   UNL     1      23.824  35.558   9.961  1.00  0.00     0.071 A 
ATOM      7  C   UNL     1      23.356  34.240   9.892  1.00  0.00     0.045 A 
ATOM      8  C   UNL     1      23.596  36.464   8.901  1.00  0.00     0.015 A 
ATOM      9  C   UNL     1      22.656  33.838   8.768  1.00  0.00     0.072 A 
ATOM     10  C   UNL     1      24.012  37.823   8.872  1.00  0.00     0.014 A 
ATOM     11  C   UNL     1      22.883  35.955   7.801  1.00  0.00     0.072 A 
ATOM     12  N   UNL     1      22.435  34.690   7.738  1.00  0.00    -0.248 NA
ATOM     13  C   UNL     1      23.748  38.650   7.774  1.00  0.00    -0.050 A 
ATOM     14  C   UNL     1      22.616  36.791   6.728  1.00  0.00     0.029 A 
ATOM     15  C   UNL     1      23.033  38.124   6.702  1.00  0.00     0.005 A 
ATOM     16  C   UNL     1      24.176  40.086   7.781  1.00  0.00     0.044 C 
BRANCH   9  17
ATOM     17  C   UNL     1      22.119  32.472   8.599  1.00  0.00     0.000 A 
ATOM     18  C   UNL     1      21.967  31.915   7.314  1.00  0.00     0.010 A 
ATOM     19  C   UNL     1      21.732  31.677   9.694  1.00  0.00     0.010 A 
ATOM     20  C   UNL     1      21.469  30.622   7.132  1.00  0.00     0.001 A 
ATOM     21  C   UNL     1      21.231  30.383   9.514  1.00  0.00     0.001 A 
ATOM     22  C   UNL     1      21.102  29.856   8.233  1.00  0.00     0.000 A 
ENDBRANCH   9  17
ENDBRANCH   4   6
ENDBRANCH   1   4
TORSDOF 4
ENDMDL
MODEL 9
REMARK VINA RESULT:    -4.796      2.770      5.471
REMARK INTER + INTRA:          -6.781
REMARK INTER:                  -6.562
REMARK INTRA:                  -0.219
REMARK UNBOUND:                -0.863
REMARK SMILES CCOC(=O)c1cc(-c2ccccc2)nc2ccc(C)cc12
REMARK SMILES IDX 3 1 2 2 1 3 4 4 5 5 6 6 7 7 22 8 8 9 21 10 16 11 15 12 19 13
REMARK SMILES IDX 17 14 18 15 20 16 9 17 10 18 14 19 11 20 13 21 12 22
REMARK H PARENT
ROOT
ATOM      1  O   UNL     1      21.144  33.375  11.552  1.00  0.00    -0.462 OA
ENDROOT
BRANCH   1   2
ATOM      2  C   UNL     1      21.964  32.897  12.629  1.00  0.00     0.230 C 
ATOM      3  C   UNL     1      21.094  32.452  13.790  1.00  0.00     0.049 C 
ENDBRANCH   1   2
BRANCH   1   4
ATOM      4  C   UNL     1      21.001  32.527  10.501  1.00  0.00     0.338 C 
ATOM      5  O   UNL     1      20.318  31.519  10.474  1.00  0.00    -0.246 OA
BRANCH   4   6
ATOM      6  C   UNL     1      21.844  33.011   9.381  1.00  0.00     0.071 A 
ATOM      7  C   UNL     1      22.067  34.389   9.281  1.00  0.00     0.045 A 
ATOM      8  C   UNL     1      22.381  32.119   8.425  1.00  0.00     0.015 A 
ATOM      9  C   UNL     1      22.833  34.867   8.233  1.00  0.00     0.072 A 
ATOM     10  C   UNL     1      22.230  30.705   8.437  1.00  0.00     0.014 A 
ATOM     11  C   UNL     1      23.137  32.706   7.395  1.00  0.00     0.072 A 
ATOM     12  N   UNL     1      23.350  34.029   7.303  1.00  0.00    -0.248 NA
ATOM     13  C   UNL     1      22.794  29.897   7.444  1.00  0.00    -0.050 A 
ATOM     14  C   UNL     1      23.702  31.889   6.427  1.00  0.00     0.029 A 
ATOM     15  C   UNL     1      23.545  30.502   6.441  1.00  0.00     0.005 A 
ATOM     16  C   UNL     1      22.640  28.407   7.496  1.00  0.00     0.044 C 
BRANCH   9  17
ATOM     17  C   UNL     1      23.128  36.302   8.040  1.00  0.00     0.000 A 
ATOM     18  C   UNL     1      22.637  36.991   6.914  1.00  0.00     0.010 A 
ATOM     19  C   UNL     1      23.910  37.037   8.952  1.00  0.00     0.010 A 
ATOM     20  C   UNL     1      22.898  38.349   6.716  1.00  0.00     0.001 A 
ATOM     21  C   UNL     1      24.174  38.396   8.755  1.00  0.00     0.001 A 
ATOM     22  C   UNL     1      23.666  39.052   7.638  1.00  0.00     0.000 A 
ENDBRANCH   9  17
ENDBRANCH   4   6
ENDBRANCH   1   4
TORSDOF 4
ENDMDL
