MODEL 1
REMARK VINA RESULT:    -4.757      0.000      0.000
REMARK INTER + INTRA:          -6.224
REMARK INTER:                  -6.009
REMARK INTRA:                  -0.215
REMARK UNBOUND:                -0.215
REMARK SMILES NC(=[NH2+])N=NCc1c(Cl)cccc1Cl
REMARK SMILES IDX 5 1 6 2 7 3 8 4 13 5 10 6 12 7 11 8 9 9 14 10 4 11 2 12 1 13
REMARK SMILES IDX 3 16
REMARK H PARENT 1 14 1 15 3 17 3 18
ROOT
ATOM      1  N   UNL     1      20.530  33.267  10.880  1.00  0.00    -0.105 NA
ENDROOT
BRANCH   1   2
ATOM      2  C   UNL     1      21.805  32.597  10.555  1.00  0.00     0.224 C 
BRANCH   2   3
ATOM      3  C   UNL     1      21.648  31.703   9.349  1.00  0.00     0.014 A 
ATOM      4  C   UNL     1      21.183  30.380   9.478  1.00  0.00     0.047 A 
ATOM      5  C   UNL     1      21.914  32.177   8.051  1.00  0.00     0.047 A 
ATOM      6  C   UNL     1      21.039  29.553   8.360  1.00  0.00     0.021 A 
ATOM      7  C   UNL     1      21.770  31.347   6.934  1.00  0.00     0.021 A 
ATOM      8  C   UNL     1      21.340  30.033   7.088  1.00  0.00     0.003 A 
ATOM      9  Cl  UNL     1      20.732  29.718  11.012  1.00  0.00    -0.084 Cl
ATOM     10  Cl  UNL     1      22.399  33.812   7.759  1.00  0.00    -0.084 Cl
ENDBRANCH   2   3
ENDBRANCH   1   2
BRANCH   1  11
ATOM     11  N   UNL     1      20.064  32.900  11.980  1.00  0.00     0.040 NA
BRANCH  11  12
ATOM     12  C   UNL     1      20.786  33.263  13.075  1.00  0.00     0.402 C 
ATOM     13  N   UNL     1      21.238  32.338  13.887  1.00  0.00    -0.286 N 
ATOM     14  H   UNL     1      21.778  32.543  14.713  1.00  0.00     0.256 HD
ATOM     15  H   UNL     1      21.028  31.372  13.665  1.00  0.00     0.256 HD
BRANCH  12  16
ATOM     16  N   UNL     1      21.048  34.521  13.350  1.00  0.00    -0.286 N 
ATOM     17  H   UNL     1      20.670  34.875  14.223  1.00  0.00     0.256 HD
ATOM     18  H   UNL     1      21.588  35.129  12.756  1.00  0.00     0.256 HD
ENDBRANCH  12  16
ENDBRANCH  11  12
ENDBRANCH   1  11
TORSDOF 5
ENDMDL
MODEL 2
REMARK VINA RESULT:    -4.712      0.103      2.443
REMARK INTER + INTRA:          -6.166
REMARK INTER:                  -5.932
REMARK INTRA:                  -0.234
REMARK UNBOUND:                -0.215
REMARK SMILES NC(=[NH2+])N=NCc1c(Cl)cccc1Cl
REMARK SMILES IDX 5 1 6 2 7 3 8 4 13 5 10 6 12 7 11 8 9 9 14 10 4 11 2 12 1 13
REMARK SMILES IDX 3 16
REMARK H PARENT 1 14 1 15 3 17 3 18
ROOT
ATOM      1  N   UNL     1      20.522  33.240  10.978  1.00  0.00    -0.105 NA
ENDROOT
BRANCH   1   2
ATOM      2  C   UNL     1      21.810  32.634  10.588  1.00  0.00     0.224 C 
BRANCH   2   3
ATOM      3  C   UNL     1      21.639  31.741   9.383  1.00  0.00     0.014 A 
ATOM      4  C   UNL     1      21.952  32.197   8.088  1.00  0.00     0.047 A 
ATOM      5  C   UNL     1      21.209  30.408   9.519  1.00  0.00     0.047 A 
ATOM      6  C   UNL     1      21.793  31.369   6.972  1.00  0.00     0.021 A 
ATOM      7  C   UNL     1      21.049  29.582   8.401  1.00  0.00     0.021 A 
ATOM      8  C   UNL     1      21.334  30.063   7.127  1.00  0.00     0.003 A 
ATOM      9  Cl  UNL     1      22.582  33.784   7.808  1.00  0.00    -0.084 Cl
ATOM     10  Cl  UNL     1      20.885  29.707  11.068  1.00  0.00    -0.084 Cl
ENDBRANCH   2   3
ENDBRANCH   1   2
BRANCH   1  11
ATOM     11  N   UNL     1      20.119  32.834  12.090  1.00  0.00     0.040 NA
BRANCH  11  12
ATOM     12  C   UNL     1      20.832  33.262  13.165  1.00  0.00     0.402 C 
ATOM     13  N   UNL     1      21.296  32.386  14.024  1.00  0.00    -0.286 N 
ATOM     14  H   UNL     1      21.830  32.640  14.840  1.00  0.00     0.256 HD
ATOM     15  H   UNL     1      21.100  31.407  13.851  1.00  0.00     0.256 HD
BRANCH  12  16
ATOM     16  N   UNL     1      21.077  34.536  13.377  1.00  0.00    -0.286 N 
ATOM     17  H   UNL     1      21.566  34.760  14.238  1.00  0.00     0.256 HD
ATOM     18  H   UNL     1      20.809  35.276  12.748  1.00  0.00     0.256 HD
ENDBRANCH  12  16
ENDBRANCH  11  12
ENDBRANCH   1  11
TORSDOF 5
ENDMDL
MODEL 3
REMARK VINA RESULT:    -4.650      2.459      3.193
REMARK INTER + INTRA:          -6.089
REMARK INTER:                  -5.721
REMARK INTRA:                  -0.368
REMARK UNBOUND:                -0.215
REMARK SMILES NC(=[NH2+])N=NCc1c(Cl)cccc1Cl
REMARK SMILES IDX 5 1 6 2 7 3 8 4 13 5 10 6 12 7 11 8 9 9 14 10 4 11 2 12 1 13
REMARK SMILES IDX 3 16
REMARK H PARENT 1 14 1 15 3 17 3 18
ROOT
ATOM      1  N   UNL     1      21.119  30.108  12.152  1.00  0.00    -0.105 NA
ENDROOT
BRANCH   1   2
ATOM      2  C   UNL     1      20.228  30.747  11.163  1.00  0.00     0.224 C 
BRANCH   2   3
ATOM      3  C   UNL     1      21.017  31.612  10.212  1.00  0.00     0.014 A 
ATOM      4  C   UNL     1      21.441  32.904  10.581  1.00  0.00     0.047 A 
ATOM      5  C   UNL     1      21.400  31.139   8.943  1.00  0.00     0.047 A 
ATOM      6  C   UNL     1      22.171  33.705   9.697  1.00  0.00     0.021 A 
ATOM      7  C   UNL     1      22.130  31.943   8.060  1.00  0.00     0.021 A 
ATOM      8  C   UNL     1      22.510  33.229   8.434  1.00  0.00     0.003 A 
ATOM      9  Cl  UNL     1      21.114  33.556  12.150  1.00  0.00    -0.084 Cl
ATOM     10  Cl  UNL     1      21.021  29.535   8.415  1.00  0.00    -0.084 Cl
ENDBRANCH   2   3
ENDBRANCH   1   2
BRANCH   1  11
ATOM     11  N   UNL     1      20.566  29.953  13.263  1.00  0.00     0.040 NA
BRANCH  11  12
ATOM     12  C   UNL     1      21.166  30.580  14.310  1.00  0.00     0.402 C 
ATOM     13  N   UNL     1      22.406  30.990  14.193  1.00  0.00    -0.286 N 
ATOM     14  H   UNL     1      22.906  31.461  14.932  1.00  0.00     0.256 HD
ATOM     15  H   UNL     1      22.878  30.820  13.313  1.00  0.00     0.256 HD
BRANCH  12  16
ATOM     16  N   UNL     1      20.541  30.792  15.446  1.00  0.00    -0.286 N 
ATOM     17  H   UNL     1      20.895  31.554  16.015  1.00  0.00     0.256 HD
ATOM     18  H   UNL     1      19.754  30.253  15.768  1.00  0.00     0.256 HD
ENDBRANCH  12  16
ENDBRANCH  11  12
ENDBRANCH   1  11
TORSDOF 5
ENDMDL
MODEL 4
REMARK VINA RESULT:    -4.563      2.524      3.172
REMARK INTER + INTRA:          -5.979
REMARK INTER:                  -5.637
REMARK INTRA:                  -0.342
REMARK UNBOUND:                -0.215
REMARK SMILES NC(=[NH2+])N=NCc1c(Cl)cccc1Cl
REMARK SMILES IDX 5 1 6 2 7 3 8 4 13 5 10 6 12 7 11 8 9 9 14 10 4 11 2 12 1 13
REMARK SMILES IDX 3 16
REMARK H PARENT 1 14 1 15 3 17 3 18
ROOT
ATOM      1  N   UNL     1      21.322  29.870  12.321  1.00  0.00    -0.105 NA
ENDROOT
BRANCH   1   2
ATOM      2  C   UNL     1      20.357  30.345  11.310  1.00  0.00     0.224 C 
BRANCH   2   3
ATOM      3  C   UNL     1      20.996  31.361  10.395  1.00  0.00     0.014 A 
ATOM      4  C   UNL     1      21.375  31.023   9.082  1.00  0.00     0.047 A 
ATOM      5  C   UNL     1      21.188  32.693  10.806  1.00  0.00     0.047 A 
ATOM      6  C   UNL     1      21.967  31.965   8.235  1.00  0.00     0.021 A 
ATOM      7  C   UNL     1      21.783  33.634   9.958  1.00  0.00     0.021 A 
ATOM      8  C   UNL     1      22.179  33.269   8.675  1.00  0.00     0.003 A 
ATOM      9  Cl  UNL     1      21.099  29.443   8.432  1.00  0.00    -0.084 Cl
ATOM     10  Cl  UNL     1      20.676  33.250  12.362  1.00  0.00    -0.084 Cl
ENDBRANCH   2   3
ENDBRANCH   1   2
BRANCH   1  11
ATOM     11  N   UNL     1      20.816  29.781  13.461  1.00  0.00     0.040 NA
BRANCH  11  12
ATOM     12  C   UNL     1      21.374  30.573  14.415  1.00  0.00     0.402 C 
ATOM     13  N   UNL     1      20.691  30.858  15.498  1.00  0.00    -0.286 N 
ATOM     14  H   UNL     1      21.049  31.439  16.241  1.00  0.00     0.256 HD
ATOM     15  H   UNL     1      19.759  30.472  15.583  1.00  0.00     0.256 HD
BRANCH  12  16
ATOM     16  N   UNL     1      22.585  31.068  14.289  1.00  0.00    -0.286 N 
ATOM     17  H   UNL     1      23.349  30.440  14.515  1.00  0.00     0.256 HD
ATOM     18  H   UNL     1      22.782  32.009  13.991  1.00  0.00     0.256 HD
ENDBRANCH  12  16
ENDBRANCH  11  12
ENDBRANCH   1  11
TORSDOF 5
ENDMDL
MODEL 5
REMARK VINA RESULT:    -4.334      2.904      5.092
REMARK INTER + INTRA:          -5.689
REMARK INTER:                  -5.494
REMARK INTRA:                  -0.196
REMARK UNBOUND:                -0.215
REMARK SMILES NC(=[NH2+])N=NCc1c(Cl)cccc1Cl
REMARK SMILES IDX 5 1 6 2 7 3 8 4 13 5 10 6 12 7 11 8 9 9 14 10 4 11 2 12 1 13
REMARK SMILES IDX 3 16
REMARK H PARENT 1 14 1 15 3 17 3 18
ROOT
ATOM      1  N   UNL     1      21.303  30.344   9.757  1.00  0.00    -0.105 NA
ENDROOT
BRANCH   1   2
ATOM      2  C   UNL     1      20.364  31.009  10.682  1.00  0.00     0.224 C 
BRANCH   2   3
ATOM      3  C   UNL     1      21.103  31.908  11.642  1.00  0.00     0.014 A 
ATOM      4  C   UNL     1      21.316  31.526  12.981  1.00  0.00     0.047 A 
ATOM      5  C   UNL     1      21.649  33.134  11.220  1.00  0.00     0.047 A 
ATOM      6  C   UNL     1      22.000  32.360  13.871  1.00  0.00     0.021 A 
ATOM      7  C   UNL     1      22.333  33.968  12.112  1.00  0.00     0.021 A 
ATOM      8  C   UNL     1      22.503  33.585  13.439  1.00  0.00     0.003 A 
ATOM      9  Cl  UNL     1      20.776  29.999  13.590  1.00  0.00    -0.084 Cl
ATOM     10  Cl  UNL     1      21.536  33.665   9.577  1.00  0.00    -0.084 Cl
ENDBRANCH   2   3
ENDBRANCH   1   2
BRANCH   1  11
ATOM     11  N   UNL     1      20.737  29.505   9.023  1.00  0.00     0.040 NA
BRANCH  11  12
ATOM     12  C   UNL     1      21.072  29.557   7.705  1.00  0.00     0.402 C 
ATOM     13  N   UNL     1      21.487  28.469   7.101  1.00  0.00    -0.286 N 
ATOM     14  H   UNL     1      21.750  28.443   6.128  1.00  0.00     0.256 HD
ATOM     15  H   UNL     1      21.544  27.619   7.647  1.00  0.00     0.256 HD
BRANCH  12  16
ATOM     16  N   UNL     1      20.994  30.669   7.009  1.00  0.00    -0.286 N 
ATOM     17  H   UNL     1      20.060  31.038   6.861  1.00  0.00     0.256 HD
ATOM     18  H   UNL     1      21.790  31.155   6.629  1.00  0.00     0.256 HD
ENDBRANCH  12  16
ENDBRANCH  11  12
ENDBRANCH   1  11
TORSDOF 5
ENDMDL
MODEL 6
REMARK VINA RESULT:    -4.256      2.850      5.698
REMARK INTER + INTRA:          -5.591
REMARK INTER:                  -5.323
REMARK INTRA:                  -0.268
REMARK UNBOUND:                -0.215
REMARK SMILES NC(=[NH2+])N=NCc1c(Cl)cccc1Cl
REMARK SMILES IDX 5 1 6 2 7 3 8 4 13 5 10 6 12 7 11 8 9 9 14 10 4 11 2 12 1 13
REMARK SMILES IDX 3 16
REMARK H PARENT 1 14 1 15 3 17 3 18
ROOT
ATOM      1  N   UNL     1      20.826  30.613   9.360  1.00  0.00    -0.105 NA
ENDROOT
BRANCH   1   2
ATOM      2  C   UNL     1      22.004  30.741  10.240  1.00  0.00     0.224 C 
BRANCH   2   3
ATOM      3  C   UNL     1      21.715  31.672  11.391  1.00  0.00     0.014 A 
ATOM      4  C   UNL     1      21.872  33.065  11.259  1.00  0.00     0.047 A 
ATOM      5  C   UNL     1      21.231  31.184  12.620  1.00  0.00     0.047 A 
ATOM      6  C   UNL     1      21.604  33.927  12.328  1.00  0.00     0.021 A 
ATOM      7  C   UNL     1      20.965  32.048  13.688  1.00  0.00     0.021 A 
ATOM      8  C   UNL     1      21.158  33.419  13.545  1.00  0.00     0.003 A 
ATOM      9  Cl  UNL     1      22.367  33.789   9.768  1.00  0.00    -0.084 Cl
ATOM     10  Cl  UNL     1      20.908  29.503  12.869  1.00  0.00    -0.084 Cl
ENDBRANCH   2   3
ENDBRANCH   1   2
BRANCH   1  11
ATOM     11  N   UNL     1      20.757  29.491   8.813  1.00  0.00     0.040 NA
BRANCH  11  12
ATOM     12  C   UNL     1      21.087  29.460   7.493  1.00  0.00     0.402 C 
ATOM     13  N   UNL     1      21.035  30.566   6.789  1.00  0.00    -0.286 N 
ATOM     14  H   UNL     1      21.267  30.608   5.808  1.00  0.00     0.256 HD
ATOM     15  H   UNL     1      20.746  31.413   7.262  1.00  0.00     0.256 HD
BRANCH  12  16
ATOM     16  N   UNL     1      21.459  28.352   6.893  1.00  0.00    -0.286 N 
ATOM     17  H   UNL     1      20.741  27.644   6.778  1.00  0.00     0.256 HD
ATOM     18  H   UNL     1      22.391  28.178   6.554  1.00  0.00     0.256 HD
ENDBRANCH  12  16
ENDBRANCH  11  12
ENDBRANCH   1  11
TORSDOF 5
ENDMDL
MODEL 7
REMARK VINA RESULT:    -4.244     10.550     12.075
REMARK INTER + INTRA:          -5.575
REMARK INTER:                  -5.332
REMARK INTRA:                  -0.243
REMARK UNBOUND:                -0.215
REMARK SMILES NC(=[NH2+])N=NCc1c(Cl)cccc1Cl
REMARK SMILES IDX 5 1 6 2 7 3 8 4 13 5 10 6 12 7 11 8 9 9 14 10 4 11 2 12 1 13
REMARK SMILES IDX 3 16
REMARK H PARENT 1 14 1 15 3 17 3 18
ROOT
ATOM      1  N   UNL     1      19.062  42.289  11.032  1.00  0.00    -0.105 NA
ENDROOT
BRANCH   1   2
ATOM      2  C   UNL     1      19.341  42.687   9.638  1.00  0.00     0.224 C 
BRANCH   2   3
ATOM      3  C   UNL     1      20.353  43.806   9.594  1.00  0.00     0.014 A 
ATOM      4  C   UNL     1      21.687  43.568   9.210  1.00  0.00     0.047 A 
ATOM      5  C   UNL     1      19.986  45.133   9.887  1.00  0.00     0.047 A 
ATOM      6  C   UNL     1      22.624  44.605   9.170  1.00  0.00     0.021 A 
ATOM      7  C   UNL     1      20.926  46.169   9.847  1.00  0.00     0.021 A 
ATOM      8  C   UNL     1      22.246  45.905   9.496  1.00  0.00     0.003 A 
ATOM      9  Cl  UNL     1      22.231  41.996   8.734  1.00  0.00    -0.084 Cl
ATOM     10  Cl  UNL     1      18.357  45.563  10.278  1.00  0.00    -0.084 Cl
ENDBRANCH   2   3
ENDBRANCH   1   2
BRANCH   1  11
ATOM     11  N   UNL     1      17.849  42.056  11.228  1.00  0.00     0.040 NA
BRANCH  11  12
ATOM     12  C   UNL     1      17.560  41.358  12.359  1.00  0.00     0.402 C 
ATOM     13  N   UNL     1      18.401  41.382  13.365  1.00  0.00    -0.286 N 
ATOM     14  H   UNL     1      18.245  40.886  14.229  1.00  0.00     0.256 HD
ATOM     15  H   UNL     1      19.248  41.927  13.259  1.00  0.00     0.256 HD
BRANCH  12  16
ATOM     16  N   UNL     1      16.457  40.653  12.482  1.00  0.00    -0.286 N 
ATOM     17  H   UNL     1      16.005  40.378  11.616  1.00  0.00     0.256 HD
ATOM     18  H   UNL     1      16.054  40.384  13.364  1.00  0.00     0.256 HD
ENDBRANCH  12  16
ENDBRANCH  11  12
ENDBRANCH   1  11
TORSDOF 5
ENDMDL
MODEL 8
REMARK VINA RESULT:    -4.199     10.589     12.128
REMARK INTER + INTRA:          -5.519
REMARK INTER:                  -5.270
REMARK INTRA:                  -0.249
REMARK UNBOUND:                -0.215
REMARK SMILES NC(=[NH2+])N=NCc1c(Cl)cccc1Cl
REMARK SMILES IDX 5 1 6 2 7 3 8 4 13 5 10 6 12 7 11 8 9 9 14 10 4 11 2 12 1 13
REMARK SMILES IDX 3 16
REMARK H PARENT 1 14 1 15 3 17 3 18
ROOT
ATOM      1  N   UNL     1      19.113  42.280  10.932  1.00  0.00    -0.105 NA
ENDROOT
BRANCH   1   2
ATOM      2  C   UNL     1      19.294  42.774   9.553  1.00  0.00     0.224 C 
BRANCH   2   3
ATOM      3  C   UNL     1      20.325  43.875   9.509  1.00  0.00     0.014 A 
ATOM      4  C   UNL     1      20.007  45.188   9.907  1.00  0.00     0.047 A 
ATOM      5  C   UNL     1      21.652  43.616   9.118  1.00  0.00     0.047 A 
ATOM      6  C   UNL     1      20.963  46.208   9.865  1.00  0.00     0.021 A 
ATOM      7  C   UNL     1      22.607  44.638   9.076  1.00  0.00     0.021 A 
ATOM      8  C   UNL     1      22.262  45.935   9.442  1.00  0.00     0.003 A 
ATOM      9  Cl  UNL     1      18.436  45.605  10.498  1.00  0.00    -0.084 Cl
ATOM     10  Cl  UNL     1      22.185  42.024   8.700  1.00  0.00    -0.084 Cl
ENDBRANCH   2   3
ENDBRANCH   1   2
BRANCH   1  11
ATOM     11  N   UNL     1      17.908  42.114  11.225  1.00  0.00     0.040 NA
BRANCH  11  12
ATOM     12  C   UNL     1      17.673  41.399  12.359  1.00  0.00     0.402 C 
ATOM     13  N   UNL     1      18.557  41.416  13.328  1.00  0.00    -0.286 N 
ATOM     14  H   UNL     1      18.441  40.908  14.191  1.00  0.00     0.256 HD
ATOM     15  H   UNL     1      19.394  41.970  13.193  1.00  0.00     0.256 HD
BRANCH  12  16
ATOM     16  N   UNL     1      16.582  40.685  12.519  1.00  0.00    -0.286 N 
ATOM     17  H   UNL     1      16.511  40.167  13.389  1.00  0.00     0.256 HD
ATOM     18  H   UNL     1      15.839  40.628  11.841  1.00  0.00     0.256 HD
ENDBRANCH  12  16
ENDBRANCH  11  12
ENDBRANCH   1  11
TORSDOF 5
ENDMDL
MODEL 9
REMARK VINA RESULT:    -4.147     10.479     12.032
REMARK INTER + INTRA:          -5.453
REMARK INTER:                  -5.228
REMARK INTRA:                  -0.224
REMARK UNBOUND:                -0.215
REMARK SMILES NC(=[NH2+])N=NCc1c(Cl)cccc1Cl
REMARK SMILES IDX 5 1 6 2 7 3 8 4 13 5 10 6 12 7 11 8 9 9 14 10 4 11 2 12 1 13
REMARK SMILES IDX 3 16
REMARK H PARENT 1 14 1 15 3 17 3 18
ROOT
ATOM      1  N   UNL     1      18.520  42.903  10.167  1.00  0.00    -0.105 NA
ENDROOT
BRANCH   1   2
ATOM      2  C   UNL     1      19.005  43.441  11.453  1.00  0.00     0.224 C 
BRANCH   2   3
ATOM      3  C   UNL     1      20.097  42.568  12.021  1.00  0.00     0.014 A 
ATOM      4  C   UNL     1      21.456  42.869  11.809  1.00  0.00     0.047 A 
ATOM      5  C   UNL     1      19.794  41.453  12.825  1.00  0.00     0.047 A 
ATOM      6  C   UNL     1      22.467  42.058  12.336  1.00  0.00     0.021 A 
ATOM      7  C   UNL     1      20.806  40.643  13.350  1.00  0.00     0.021 A 
ATOM      8  C   UNL     1      22.143  40.940  13.100  1.00  0.00     0.003 A 
ATOM      9  Cl  UNL     1      21.952  44.268  10.920  1.00  0.00    -0.084 Cl
ATOM     10  Cl  UNL     1      18.164  41.040  13.234  1.00  0.00    -0.084 Cl
ENDBRANCH   2   3
ENDBRANCH   1   2
BRANCH   1  11
ATOM     11  N   UNL     1      18.964  43.539   9.185  1.00  0.00     0.040 NA
BRANCH  11  12
ATOM     12  C   UNL     1      18.440  44.781   9.005  1.00  0.00     0.402 C 
ATOM     13  N   UNL     1      17.228  44.907   8.517  1.00  0.00    -0.286 N 
ATOM     14  H   UNL     1      16.785  45.799   8.360  1.00  0.00     0.256 HD
ATOM     15  H   UNL     1      16.721  44.060   8.290  1.00  0.00     0.256 HD
BRANCH  12  16
ATOM     16  N   UNL     1      19.111  45.871   9.304  1.00  0.00    -0.286 N 
ATOM     17  H   UNL     1      20.054  45.733   9.653  1.00  0.00     0.256 HD
ATOM     18  H   UNL     1      18.745  46.804   9.207  1.00  0.00     0.256 HD
ENDBRANCH  12  16
ENDBRANCH  11  12
ENDBRANCH   1  11
TORSDOF 5
ENDMDL
