MODEL 1
REMARK VINA RESULT:    -5.654      0.000      0.000
REMARK INTER + INTRA:          -6.955
REMARK INTER:                  -6.646
REMARK INTRA:                  -0.309
REMARK UNBOUND:                -0.309
REMARK SMILES Cc1nc(=NCc2ccccc2)c2cc[nH]c2[nH]1
REMARK SMILES IDX 5 1 4 2 18 3 2 4 17 5 3 6 16 7 13 8 15 9 14 10 1 12 6 14
REMARK SMILES IDX 7 15 8 16 12 17 9 18 11 19 10 20
REMARK H PARENT 18 11 16 13
ROOT
ATOM      1  N   UNL     1      22.349  33.280   7.969  1.00  0.00    -0.261 NA
ENDROOT
BRANCH   1   2
ATOM      2  C   UNL     1      21.895  32.135   8.323  1.00  0.00     0.160 A 
ATOM      3  N   UNL     1      20.840  29.764   9.364  1.00  0.00    -0.330 N 
ATOM      4  C   UNL     1      20.942  30.940  10.086  1.00  0.00     0.106 A 
ATOM      5  C   UNL     1      21.283  29.788   8.099  1.00  0.00     0.119 A 
ATOM      6  N   UNL     1      21.428  32.056   9.627  1.00  0.00    -0.216 NA
ATOM      7  N   UNL     1      21.278  28.748   7.227  1.00  0.00    -0.348 N 
ATOM      8  C   UNL     1      21.815  30.915   7.517  1.00  0.00     0.061 A 
ATOM      9  C   UNL     1      21.818  29.188   6.043  1.00  0.00     0.085 A 
ATOM     10  C   UNL     1      22.158  30.520   6.194  1.00  0.00     0.033 A 
ATOM     11  H   UNL     1      20.445  28.946   9.811  1.00  0.00     0.169 HD
ATOM     12  C   UNL     1      20.448  30.919  11.512  1.00  0.00     0.087 C 
ATOM     13  H   UNL     1      20.941  27.813   7.408  1.00  0.00     0.167 HD
ENDBRANCH   1   2
BRANCH   1  14
ATOM     14  C   UNL     1      23.228  34.065   8.816  1.00  0.00     0.180 C 
BRANCH  14  15
ATOM     15  C   UNL     1      23.292  35.524   8.407  1.00  0.00    -0.027 A 
ATOM     16  C   UNL     1      22.735  35.930   7.184  1.00  0.00     0.005 A 
ATOM     17  C   UNL     1      23.958  36.476   9.190  1.00  0.00     0.005 A 
ATOM     18  C   UNL     1      22.821  37.262   6.770  1.00  0.00     0.000 A 
ATOM     19  C   UNL     1      24.044  37.807   8.776  1.00  0.00     0.000 A 
ATOM     20  C   UNL     1      23.474  38.199   7.567  1.00  0.00     0.000 A 
ENDBRANCH  14  15
ENDBRANCH   1  14
TORSDOF 3
ENDMDL
MODEL 2
REMARK VINA RESULT:    -5.612      3.592      6.786
REMARK INTER + INTRA:          -6.905
REMARK INTER:                  -6.529
REMARK INTRA:                  -0.376
REMARK UNBOUND:                -0.309
REMARK SMILES Cc1nc(=NCc2ccccc2)c2cc[nH]c2[nH]1
REMARK SMILES IDX 5 1 4 2 18 3 2 4 17 5 3 6 16 7 13 8 15 9 14 10 1 12 6 14
REMARK SMILES IDX 7 15 8 16 12 17 9 18 11 19 10 20
REMARK H PARENT 18 11 16 13
ROOT
ATOM      1  N   UNL     1      20.732  32.849  11.702  1.00  0.00    -0.261 NA
ENDROOT
BRANCH   1   2
ATOM      2  C   UNL     1      21.120  33.277  12.846  1.00  0.00     0.160 A 
ATOM      3  N   UNL     1      22.000  34.483  15.211  1.00  0.00    -0.330 N 
ATOM      4  C   UNL     1      21.899  35.149  14.002  1.00  0.00     0.106 A 
ATOM      5  C   UNL     1      21.655  33.187  15.221  1.00  0.00     0.119 A 
ATOM      6  N   UNL     1      21.494  34.613  12.888  1.00  0.00    -0.216 NA
ATOM      7  N   UNL     1      21.684  32.357  16.294  1.00  0.00    -0.348 N 
ATOM      8  C   UNL     1      21.214  32.525  14.099  1.00  0.00     0.061 A 
ATOM      9  C   UNL     1      21.258  31.119  15.882  1.00  0.00     0.085 A 
ATOM     10  C   UNL     1      20.962  31.194  14.532  1.00  0.00     0.033 A 
ATOM     11  H   UNL     1      22.327  34.989  16.024  1.00  0.00     0.169 HD
ATOM     12  C   UNL     1      22.289  36.606  13.983  1.00  0.00     0.087 C 
ATOM     13  H   UNL     1      21.970  32.599  17.233  1.00  0.00     0.167 HD
ENDBRANCH   1   2
BRANCH   1  14
ATOM     14  C   UNL     1      21.413  33.197  10.469  1.00  0.00     0.180 C 
BRANCH  14  15
ATOM     15  C   UNL     1      21.452  32.053   9.474  1.00  0.00    -0.027 A 
ATOM     16  C   UNL     1      21.787  32.306   8.134  1.00  0.00     0.005 A 
ATOM     17  C   UNL     1      21.093  30.749   9.842  1.00  0.00     0.005 A 
ATOM     18  C   UNL     1      21.789  31.273   7.194  1.00  0.00     0.000 A 
ATOM     19  C   UNL     1      21.094  29.717   8.901  1.00  0.00     0.000 A 
ATOM     20  C   UNL     1      21.443  29.979   7.579  1.00  0.00     0.000 A 
ENDBRANCH  14  15
ENDBRANCH   1  14
TORSDOF 3
ENDMDL
MODEL 3
REMARK VINA RESULT:    -5.605      3.127      5.480
REMARK INTER + INTRA:          -6.897
REMARK INTER:                  -6.228
REMARK INTRA:                  -0.669
REMARK UNBOUND:                -0.309
REMARK SMILES Cc1nc(=NCc2ccccc2)c2cc[nH]c2[nH]1
REMARK SMILES IDX 5 1 4 2 18 3 2 4 17 5 3 6 16 7 13 8 15 9 14 10 1 12 6 14
REMARK SMILES IDX 7 15 8 16 12 17 9 18 11 19 10 20
REMARK H PARENT 18 11 16 13
ROOT
ATOM      1  N   UNL     1      20.806  33.169  10.288  1.00  0.00    -0.261 NA
ENDROOT
BRANCH   1   2
ATOM      2  C   UNL     1      20.993  32.871  11.520  1.00  0.00     0.160 A 
ATOM      3  N   UNL     1      21.456  32.516  14.255  1.00  0.00    -0.330 N 
ATOM      4  C   UNL     1      21.549  33.739  13.614  1.00  0.00     0.106 A 
ATOM      5  C   UNL     1      21.128  31.458  13.500  1.00  0.00     0.119 A 
ATOM      6  N   UNL     1      21.340  33.932  12.344  1.00  0.00    -0.216 NA
ATOM      7  N   UNL     1      20.988  30.179  13.929  1.00  0.00    -0.348 N 
ATOM      8  C   UNL     1      20.886  31.553  12.149  1.00  0.00     0.061 A 
ATOM      9  C   UNL     1      20.650  29.405  12.846  1.00  0.00     0.085 A 
ATOM     10  C   UNL     1      20.581  30.227  11.735  1.00  0.00     0.033 A 
ATOM     11  H   UNL     1      21.637  32.469  15.250  1.00  0.00     0.169 HD
ATOM     12  C   UNL     1      21.920  34.933  14.458  1.00  0.00     0.087 C 
ATOM     13  H   UNL     1      21.111  29.844  14.875  1.00  0.00     0.167 HD
ENDBRANCH   1   2
BRANCH   1  14
ATOM     14  C   UNL     1      21.900  33.309   9.346  1.00  0.00     0.180 C 
BRANCH  14  15
ATOM     15  C   UNL     1      22.166  32.040   8.559  1.00  0.00    -0.027 A 
ATOM     16  C   UNL     1      21.527  31.837   7.325  1.00  0.00     0.005 A 
ATOM     17  C   UNL     1      22.988  31.023   9.065  1.00  0.00     0.005 A 
ATOM     18  C   UNL     1      21.728  30.657   6.606  1.00  0.00     0.000 A 
ATOM     19  C   UNL     1      23.187  29.842   8.345  1.00  0.00     0.000 A 
ATOM     20  C   UNL     1      22.558  29.661   7.116  1.00  0.00     0.000 A 
ENDBRANCH  14  15
ENDBRANCH   1  14
TORSDOF 3
ENDMDL
MODEL 4
REMARK VINA RESULT:    -5.589      3.787      6.820
REMARK INTER + INTRA:          -6.878
REMARK INTER:                  -6.363
REMARK INTRA:                  -0.515
REMARK UNBOUND:                -0.309
REMARK SMILES Cc1nc(=NCc2ccccc2)c2cc[nH]c2[nH]1
REMARK SMILES IDX 5 1 4 2 18 3 2 4 17 5 3 6 16 7 13 8 15 9 14 10 1 12 6 14
REMARK SMILES IDX 7 15 8 16 12 17 9 18 11 19 10 20
REMARK H PARENT 18 11 16 13
ROOT
ATOM      1  N   UNL     1      21.655  30.788  12.643  1.00  0.00    -0.261 NA
ENDROOT
BRANCH   1   2
ATOM      2  C   UNL     1      21.682  31.515  13.698  1.00  0.00     0.160 A 
ATOM      3  N   UNL     1      21.741  32.842  16.158  1.00  0.00    -0.330 N 
ATOM      4  C   UNL     1      21.687  31.465  16.031  1.00  0.00     0.106 A 
ATOM      5  C   UNL     1      21.760  33.557  15.025  1.00  0.00     0.119 A 
ATOM      6  N   UNL     1      21.659  30.823  14.900  1.00  0.00    -0.216 NA
ATOM      7  N   UNL     1      21.807  34.909  14.929  1.00  0.00    -0.348 N 
ATOM      8  C   UNL     1      21.733  32.977  13.778  1.00  0.00     0.061 A 
ATOM      9  C   UNL     1      21.809  35.239  13.596  1.00  0.00     0.085 A 
ATOM     10  C   UNL     1      21.763  34.066  12.863  1.00  0.00     0.033 A 
ATOM     11  H   UNL     1      21.760  33.249  17.085  1.00  0.00     0.169 HD
ATOM     12  C   UNL     1      21.663  30.655  17.304  1.00  0.00     0.087 C 
ATOM     13  H   UNL     1      21.834  35.566  15.697  1.00  0.00     0.167 HD
ENDBRANCH   1   2
BRANCH   1  14
ATOM     14  C   UNL     1      20.530  30.789  11.726  1.00  0.00     0.180 C 
BRANCH  14  15
ATOM     15  C   UNL     1      20.948  30.976  10.280  1.00  0.00    -0.027 A 
ATOM     16  C   UNL     1      20.975  29.871   9.414  1.00  0.00     0.005 A 
ATOM     17  C   UNL     1      21.377  32.219   9.796  1.00  0.00     0.005 A 
ATOM     18  C   UNL     1      21.396  30.015   8.090  1.00  0.00     0.000 A 
ATOM     19  C   UNL     1      21.798  32.363   8.472  1.00  0.00     0.000 A 
ATOM     20  C   UNL     1      21.806  31.261   7.620  1.00  0.00     0.000 A 
ENDBRANCH  14  15
ENDBRANCH   1  14
TORSDOF 3
ENDMDL
MODEL 5
REMARK VINA RESULT:    -5.546      2.345      5.699
REMARK INTER + INTRA:          -6.827
REMARK INTER:                  -6.307
REMARK INTRA:                  -0.520
REMARK UNBOUND:                -0.309
REMARK SMILES Cc1nc(=NCc2ccccc2)c2cc[nH]c2[nH]1
REMARK SMILES IDX 5 1 4 2 18 3 2 4 17 5 3 6 16 7 13 8 15 9 14 10 1 12 6 14
REMARK SMILES IDX 7 15 8 16 12 17 9 18 11 19 10 20
REMARK H PARENT 18 11 16 13
ROOT
ATOM      1  N   UNL     1      20.863  33.265  10.950  1.00  0.00    -0.261 NA
ENDROOT
BRANCH   1   2
ATOM      2  C   UNL     1      21.357  32.962   9.807  1.00  0.00     0.160 A 
ATOM      3  N   UNL     1      22.508  32.592   7.286  1.00  0.00    -0.330 N 
ATOM      4  C   UNL     1      22.423  33.821   7.917  1.00  0.00     0.106 A 
ATOM      5  C   UNL     1      22.000  31.537   7.938  1.00  0.00     0.119 A 
ATOM      6  N   UNL     1      21.893  34.021   9.088  1.00  0.00    -0.216 NA
ATOM      7  N   UNL     1      21.978  30.255   7.497  1.00  0.00    -0.348 N 
ATOM      8  C   UNL     1      21.417  31.640   9.180  1.00  0.00     0.061 A 
ATOM      9  C   UNL     1      21.369  29.487   8.459  1.00  0.00     0.085 A 
ATOM     10  C   UNL     1      21.012  30.316   9.508  1.00  0.00     0.033 A 
ATOM     11  H   UNL     1      22.941  32.539   6.372  1.00  0.00     0.169 HD
ATOM     12  C   UNL     1      22.992  35.012   7.187  1.00  0.00     0.087 C 
ATOM     13  H   UNL     1      22.342  29.915   6.617  1.00  0.00     0.167 HD
ENDBRANCH   1   2
BRANCH   1  14
ATOM     14  C   UNL     1      21.692  33.612  12.089  1.00  0.00     0.180 C 
BRANCH  14  15
ATOM     15  C   UNL     1      21.377  32.785  13.321  1.00  0.00    -0.027 A 
ATOM     16  C   UNL     1      21.411  31.383  13.247  1.00  0.00     0.005 A 
ATOM     17  C   UNL     1      20.984  33.384  14.525  1.00  0.00     0.005 A 
ATOM     18  C   UNL     1      21.085  30.604  14.359  1.00  0.00     0.000 A 
ATOM     19  C   UNL     1      20.656  32.605  15.637  1.00  0.00     0.000 A 
ATOM     20  C   UNL     1      20.708  31.215  15.553  1.00  0.00     0.000 A 
ENDBRANCH  14  15
ENDBRANCH   1  14
TORSDOF 3
ENDMDL
MODEL 6
REMARK VINA RESULT:    -5.399      2.138      5.880
REMARK INTER + INTRA:          -6.655
REMARK INTER:                  -6.170
REMARK INTRA:                  -0.485
REMARK UNBOUND:                -0.309
REMARK SMILES Cc1nc(=NCc2ccccc2)c2cc[nH]c2[nH]1
REMARK SMILES IDX 5 1 4 2 18 3 2 4 17 5 3 6 16 7 13 8 15 9 14 10 1 12 6 14
REMARK SMILES IDX 7 15 8 16 12 17 9 18 11 19 10 20
REMARK H PARENT 18 11 16 13
ROOT
ATOM      1  N   UNL     1      20.584  30.491  10.729  1.00  0.00    -0.261 NA
ENDROOT
BRANCH   1   2
ATOM      2  C   UNL     1      21.103  30.745   9.585  1.00  0.00     0.160 A 
ATOM      3  N   UNL     1      22.188  31.007   7.022  1.00  0.00    -0.330 N 
ATOM      4  C   UNL     1      21.715  29.813   7.535  1.00  0.00     0.106 A 
ATOM      5  C   UNL     1      22.115  32.083   7.818  1.00  0.00     0.119 A 
ATOM      6  N   UNL     1      21.206  29.663   8.723  1.00  0.00    -0.216 NA
ATOM      7  N   UNL     1      22.525  33.339   7.511  1.00  0.00    -0.348 N 
ATOM      8  C   UNL     1      21.595  32.033   9.091  1.00  0.00     0.061 A 
ATOM      9  C   UNL     1      22.277  34.142   8.597  1.00  0.00     0.085 A 
ATOM     10  C   UNL     1      21.704  33.362   9.586  1.00  0.00     0.033 A 
ATOM     11  H   UNL     1      22.566  31.022   6.082  1.00  0.00     0.169 HD
ATOM     12  C   UNL     1      21.797  28.598   6.644  1.00  0.00     0.087 C 
ATOM     13  H   UNL     1      22.941  33.640   6.640  1.00  0.00     0.167 HD
ENDBRANCH   1   2
BRANCH   1  14
ATOM     14  C   UNL     1      21.385  30.144  11.887  1.00  0.00     0.180 C 
BRANCH  14  15
ATOM     15  C   UNL     1      21.174  31.089  13.055  1.00  0.00    -0.027 A 
ATOM     16  C   UNL     1      21.048  30.574  14.355  1.00  0.00     0.005 A 
ATOM     17  C   UNL     1      21.032  32.470  12.864  1.00  0.00     0.005 A 
ATOM     18  C   UNL     1      20.813  31.424  15.438  1.00  0.00     0.000 A 
ATOM     19  C   UNL     1      20.796  33.320  13.946  1.00  0.00     0.000 A 
ATOM     20  C   UNL     1      20.688  32.797  15.233  1.00  0.00     0.000 A 
ENDBRANCH  14  15
ENDBRANCH   1  14
TORSDOF 3
ENDMDL
MODEL 7
REMARK VINA RESULT:    -5.279      1.241      2.924
REMARK INTER + INTRA:          -6.514
REMARK INTER:                  -6.220
REMARK INTRA:                  -0.294
REMARK UNBOUND:                -0.309
REMARK SMILES Cc1nc(=NCc2ccccc2)c2cc[nH]c2[nH]1
REMARK SMILES IDX 5 1 4 2 18 3 2 4 17 5 3 6 16 7 13 8 15 9 14 10 1 12 6 14
REMARK SMILES IDX 7 15 8 16 12 17 9 18 11 19 10 20
REMARK H PARENT 18 11 16 13
ROOT
ATOM      1  N   UNL     1      22.374  34.395   8.404  1.00  0.00    -0.261 NA
ENDROOT
BRANCH   1   2
ATOM      2  C   UNL     1      22.190  33.127   8.383  1.00  0.00     0.160 A 
ATOM      3  N   UNL     1      21.948  30.358   8.078  1.00  0.00    -0.330 N 
ATOM      4  C   UNL     1      22.604  31.175   7.174  1.00  0.00     0.106 A 
ATOM      5  C   UNL     1      21.403  30.953   9.149  1.00  0.00     0.119 A 
ATOM      6  N   UNL     1      22.731  32.464   7.290  1.00  0.00    -0.216 NA
ATOM      7  N   UNL     1      20.718  30.339  10.146  1.00  0.00    -0.348 N 
ATOM      8  C   UNL     1      21.480  32.308   9.368  1.00  0.00     0.061 A 
ATOM      9  C   UNL     1      20.328  31.301  11.045  1.00  0.00     0.085 A 
ATOM     10  C   UNL     1      20.784  32.525  10.589  1.00  0.00     0.033 A 
ATOM     11  H   UNL     1      21.904  29.363   7.898  1.00  0.00     0.169 HD
ATOM     12  C   UNL     1      23.218  30.512   5.965  1.00  0.00     0.087 C 
ATOM     13  H   UNL     1      20.523  29.349  10.221  1.00  0.00     0.167 HD
ENDBRANCH   1   2
BRANCH   1  14
ATOM     14  C   UNL     1      22.624  35.166   7.201  1.00  0.00     0.180 C 
BRANCH  14  15
ATOM     15  C   UNL     1      22.972  36.614   7.491  1.00  0.00    -0.027 A 
ATOM     16  C   UNL     1      22.563  37.621   6.601  1.00  0.00     0.005 A 
ATOM     17  C   UNL     1      23.756  36.973   8.596  1.00  0.00     0.005 A 
ATOM     18  C   UNL     1      22.909  38.955   6.828  1.00  0.00     0.000 A 
ATOM     19  C   UNL     1      24.102  38.307   8.822  1.00  0.00     0.000 A 
ATOM     20  C   UNL     1      23.677  39.297   7.939  1.00  0.00     0.000 A 
ENDBRANCH  14  15
ENDBRANCH   1  14
TORSDOF 3
ENDMDL
MODEL 8
REMARK VINA RESULT:    -4.975      3.722      6.186
REMARK INTER + INTRA:          -6.157
REMARK INTER:                  -5.464
REMARK INTRA:                  -0.693
REMARK UNBOUND:                -0.309
REMARK SMILES Cc1nc(=NCc2ccccc2)c2cc[nH]c2[nH]1
REMARK SMILES IDX 5 1 4 2 18 3 2 4 17 5 3 6 16 7 13 8 15 9 14 10 1 12 6 14
REMARK SMILES IDX 7 15 8 16 12 17 9 18 11 19 10 20
REMARK H PARENT 18 11 16 13
ROOT
ATOM      1  N   UNL     1      20.682  30.926  12.465  1.00  0.00    -0.261 NA
ENDROOT
BRANCH   1   2
ATOM      2  C   UNL     1      21.604  30.866  13.353  1.00  0.00     0.160 A 
ATOM      3  N   UNL     1      23.408  30.835  15.489  1.00  0.00    -0.330 N 
ATOM      4  C   UNL     1      22.092  31.249  15.603  1.00  0.00     0.106 A 
ATOM      5  C   UNL     1      23.817  30.436  14.277  1.00  0.00     0.119 A 
ATOM      6  N   UNL     1      21.233  31.274  14.627  1.00  0.00    -0.216 NA
ATOM      7  N   UNL     1      25.060  30.000  13.952  1.00  0.00    -0.348 N 
ATOM      8  C   UNL     1      22.989  30.424  13.178  1.00  0.00     0.061 A 
ATOM      9  C   UNL     1      25.064  29.693  12.614  1.00  0.00     0.085 A 
ATOM     10  C   UNL     1      23.799  29.946  12.111  1.00  0.00     0.033 A 
ATOM     11  H   UNL     1      24.000  30.852  16.310  1.00  0.00     0.169 HD
ATOM     12  C   UNL     1      21.627  31.701  16.965  1.00  0.00     0.087 C 
ATOM     13  H   UNL     1      25.850  29.915  14.577  1.00  0.00     0.167 HD
ENDBRANCH   1   2
BRANCH   1  14
ATOM     14  C   UNL     1      20.619  31.988  11.479  1.00  0.00     0.180 C 
BRANCH  14  15
ATOM     15  C   UNL     1      21.048  31.536  10.096  1.00  0.00    -0.027 A 
ATOM     16  C   UNL     1      21.530  32.478   9.173  1.00  0.00     0.005 A 
ATOM     17  C   UNL     1      20.913  30.203   9.686  1.00  0.00     0.005 A 
ATOM     18  C   UNL     1      21.891  32.088   7.882  1.00  0.00     0.000 A 
ATOM     19  C   UNL     1      21.273  29.814   8.394  1.00  0.00     0.000 A 
ATOM     20  C   UNL     1      21.764  30.757   7.494  1.00  0.00     0.000 A 
ENDBRANCH  14  15
ENDBRANCH   1  14
TORSDOF 3
ENDMDL
MODEL 9
REMARK VINA RESULT:    -4.969      7.726     10.522
REMARK INTER + INTRA:          -6.149
REMARK INTER:                  -5.635
REMARK INTRA:                  -0.513
REMARK UNBOUND:                -0.309
REMARK SMILES Cc1nc(=NCc2ccccc2)c2cc[nH]c2[nH]1
REMARK SMILES IDX 5 1 4 2 18 3 2 4 17 5 3 6 16 7 13 8 15 9 14 10 1 12 6 14
REMARK SMILES IDX 7 15 8 16 12 17 9 18 11 19 10 20
REMARK H PARENT 18 11 16 13
ROOT
ATOM      1  N   UNL     1      22.256  42.688   9.765  1.00  0.00    -0.261 NA
ENDROOT
BRANCH   1   2
ATOM      2  C   UNL     1      21.094  42.876  10.272  1.00  0.00     0.160 A 
ATOM      3  N   UNL     1      18.498  43.453  11.133  1.00  0.00    -0.330 N 
ATOM      4  C   UNL     1      19.041  43.939   9.957  1.00  0.00     0.106 A 
ATOM      5  C   UNL     1      19.281  42.667  11.885  1.00  0.00     0.119 A 
ATOM      6  N   UNL     1      20.245  43.688   9.533  1.00  0.00    -0.216 NA
ATOM      7  N   UNL     1      18.945  42.095  13.068  1.00  0.00    -0.348 N 
ATOM      8  C   UNL     1      20.568  42.340  11.529  1.00  0.00     0.061 A 
ATOM      9  C   UNL     1      20.026  41.374  13.511  1.00  0.00     0.085 A 
ATOM     10  C   UNL     1      21.042  41.508  12.581  1.00  0.00     0.033 A 
ATOM     11  H   UNL     1      17.548  43.706  11.376  1.00  0.00     0.169 HD
ATOM     12  C   UNL     1      18.165  44.826   9.107  1.00  0.00     0.087 C 
ATOM     13  H   UNL     1      18.058  42.179  13.547  1.00  0.00     0.167 HD
ENDBRANCH   1   2
BRANCH   1  14
ATOM     14  C   UNL     1      22.445  42.153   8.429  1.00  0.00     0.180 C 
BRANCH  14  15
ATOM     15  C   UNL     1      22.925  40.714   8.433  1.00  0.00    -0.027 A 
ATOM     16  C   UNL     1      23.765  40.262   9.463  1.00  0.00     0.005 A 
ATOM     17  C   UNL     1      22.605  39.833   7.391  1.00  0.00     0.005 A 
ATOM     18  C   UNL     1      24.250  38.952   9.462  1.00  0.00     0.000 A 
ATOM     19  C   UNL     1      23.091  38.523   7.390  1.00  0.00     0.000 A 
ATOM     20  C   UNL     1      23.912  38.084   8.426  1.00  0.00     0.000 A 
ENDBRANCH  14  15
ENDBRANCH   1  14
TORSDOF 3
ENDMDL
