MODEL 1
REMARK VINA RESULT:    -6.077      0.000      0.000
REMARK INTER + INTRA:          -8.320
REMARK INTER:                  -7.675
REMARK INTRA:                  -0.644
REMARK UNBOUND:                -0.644
REMARK SMILES C=c1ccc2nc(-c3ccccc3)cc(=C(O)OCC)c2c1
REMARK SMILES IDX 16 1 17 2 18 4 19 5 20 6 15 7 14 8 21 9 7 10 22 11 5 12 6 13
REMARK SMILES IDX 2 14 4 15 3 16 1 17 8 18 9 19 13 20 10 21 12 22 11 23
REMARK H PARENT 17 3
ROOT
ATOM      1  C   UNL     1      21.146  29.915  12.451  1.00  0.00     0.284 C 
ENDROOT
BRANCH   1   2
ATOM      2  O   UNL     1      20.002  29.239  12.108  1.00  0.00    -0.481 OA
ATOM      3  H   UNL     1      19.299  29.908  12.179  1.00  0.00     0.297 HD
ENDBRANCH   1   2
BRANCH   1   4
ATOM      4  O   UNL     1      22.071  29.175  13.165  1.00  0.00    -0.465 OA
BRANCH   4   5
ATOM      5  C   UNL     1      23.370  29.303  12.575  1.00  0.00     0.229 C 
ATOM      6  C   UNL     1      24.337  29.740  13.660  1.00  0.00     0.049 C 
ENDBRANCH   4   5
ENDBRANCH   1   4
BRANCH   1   7
ATOM      7  C   UNL     1      21.407  31.186  12.051  1.00  0.00     0.066 A 
ATOM      8  C   UNL     1      21.533  32.223  13.084  1.00  0.00     0.045 A 
ATOM      9  C   UNL     1      21.592  31.630  10.656  1.00  0.00     0.015 A 
ATOM     10  C   UNL     1      21.819  33.500  12.772  1.00  0.00     0.072 A 
ATOM     11  C   UNL     1      21.475  30.897   9.532  1.00  0.00     0.018 A 
ATOM     12  C   UNL     1      21.935  33.102  10.509  1.00  0.00     0.072 A 
ATOM     13  N   UNL     1      22.040  33.951  11.490  1.00  0.00    -0.248 NA
ATOM     14  C   UNL     1      21.686  31.455   8.205  1.00  0.00    -0.032 A 
ATOM     15  C   UNL     1      22.169  33.632   9.136  1.00  0.00     0.029 A 
ATOM     16  C   UNL     1      22.048  32.849   8.059  1.00  0.00     0.010 A 
ATOM     17  C   UNL     1      21.552  30.681   7.118  1.00  0.00     0.017 C 
BRANCH  10  18
ATOM     18  C   UNL     1      21.953  34.497  13.862  1.00  0.00     0.000 A 
ATOM     19  C   UNL     1      22.279  35.826  13.554  1.00  0.00     0.010 A 
ATOM     20  C   UNL     1      21.734  34.156  15.207  1.00  0.00     0.010 A 
ATOM     21  C   UNL     1      22.406  36.784  14.563  1.00  0.00     0.001 A 
ATOM     22  C   UNL     1      21.860  35.115  16.217  1.00  0.00     0.001 A 
ATOM     23  C   UNL     1      22.200  36.427  15.894  1.00  0.00     0.000 A 
ENDBRANCH  10  18
ENDBRANCH   1   7
TORSDOF 5
ENDMDL
MODEL 2
REMARK VINA RESULT:    -6.019      3.032      4.573
REMARK INTER + INTRA:          -8.247
REMARK INTER:                  -7.439
REMARK INTRA:                  -0.807
REMARK UNBOUND:                -0.644
REMARK SMILES C=c1ccc2nc(-c3ccccc3)cc(=C(O)OCC)c2c1
REMARK SMILES IDX 16 1 17 2 18 4 19 5 20 6 15 7 14 8 21 9 7 10 22 11 5 12 6 13
REMARK SMILES IDX 2 14 4 15 3 16 1 17 8 18 9 19 13 20 10 21 12 22 11 23
REMARK H PARENT 17 3
ROOT
ATOM      1  C   UNL     1      22.736  34.598   7.855  1.00  0.00     0.284 C 
ENDROOT
BRANCH   1   2
ATOM      2  O   UNL     1      21.899  35.170   6.930  1.00  0.00    -0.481 OA
ATOM      3  H   UNL     1      22.449  35.844   6.494  1.00  0.00     0.297 HD
ENDBRANCH   1   2
BRANCH   1   4
ATOM      4  O   UNL     1      24.011  35.133   7.900  1.00  0.00    -0.465 OA
BRANCH   4   5
ATOM      5  C   UNL     1      23.953  36.561   7.803  1.00  0.00     0.229 C 
ATOM      6  C   UNL     1      24.161  37.135   9.192  1.00  0.00     0.049 C 
ENDBRANCH   4   5
ENDBRANCH   1   4
BRANCH   1   7
ATOM      7  C   UNL     1      22.335  33.640   8.730  1.00  0.00     0.066 A 
ATOM      8  C   UNL     1      22.250  33.995  10.152  1.00  0.00     0.045 A 
ATOM      9  C   UNL     1      21.959  32.257   8.380  1.00  0.00     0.015 A 
ATOM     10  C   UNL     1      21.835  33.111  11.078  1.00  0.00     0.072 A 
ATOM     11  C   UNL     1      22.001  31.669   7.168  1.00  0.00     0.018 A 
ATOM     12  C   UNL     1      21.490  31.420   9.557  1.00  0.00     0.072 A 
ATOM     13  N   UNL     1      21.435  31.825  10.792  1.00  0.00    -0.248 NA
ATOM     14  C   UNL     1      21.597  30.289   6.952  1.00  0.00    -0.032 A 
ATOM     15  C   UNL     1      21.061  30.018   9.292  1.00  0.00     0.029 A 
ATOM     16  C   UNL     1      21.116  29.495   8.062  1.00  0.00     0.010 A 
ATOM     17  C   UNL     1      21.664  29.750   5.724  1.00  0.00     0.017 C 
BRANCH  10  18
ATOM     18  C   UNL     1      21.752  33.537  12.496  1.00  0.00     0.000 A 
ATOM     19  C   UNL     1      21.087  32.727  13.429  1.00  0.00     0.010 A 
ATOM     20  C   UNL     1      22.349  34.726  12.948  1.00  0.00     0.010 A 
ATOM     21  C   UNL     1      21.000  33.104  14.771  1.00  0.00     0.001 A 
ATOM     22  C   UNL     1      22.263  35.103  14.292  1.00  0.00     0.001 A 
ATOM     23  C   UNL     1      21.584  34.293  15.201  1.00  0.00     0.000 A 
ENDBRANCH  10  18
ENDBRANCH   1   7
TORSDOF 5
ENDMDL
MODEL 3
REMARK VINA RESULT:    -5.883      3.260      5.515
REMARK INTER + INTRA:          -8.075
REMARK INTER:                  -7.224
REMARK INTRA:                  -0.851
REMARK UNBOUND:                -0.644
REMARK SMILES C=c1ccc2nc(-c3ccccc3)cc(=C(O)OCC)c2c1
REMARK SMILES IDX 16 1 17 2 18 4 19 5 20 6 15 7 14 8 21 9 7 10 22 11 5 12 6 13
REMARK SMILES IDX 2 14 4 15 3 16 1 17 8 18 9 19 13 20 10 21 12 22 11 23
REMARK H PARENT 17 3
ROOT
ATOM      1  C   UNL     1      21.945  31.182   7.003  1.00  0.00     0.284 C 
ENDROOT
BRANCH   1   2
ATOM      2  O   UNL     1      20.772  30.671   6.507  1.00  0.00    -0.481 OA
ATOM      3  H   UNL     1      21.030  29.821   6.110  1.00  0.00     0.297 HD
ENDBRANCH   1   2
BRANCH   1   4
ATOM      4  O   UNL     1      23.091  30.748   6.360  1.00  0.00    -0.465 OA
BRANCH   4   5
ATOM      5  C   UNL     1      23.957  30.084   7.286  1.00  0.00     0.229 C 
ATOM      6  C   UNL     1      23.448  28.666   7.470  1.00  0.00     0.049 C 
ENDBRANCH   4   5
ENDBRANCH   1   4
BRANCH   1   7
ATOM      7  C   UNL     1      21.993  32.113   7.990  1.00  0.00     0.066 A 
ATOM      8  C   UNL     1      22.462  33.461   7.647  1.00  0.00     0.045 A 
ATOM      9  C   UNL     1      21.599  31.899   9.397  1.00  0.00     0.015 A 
ATOM     10  C   UNL     1      22.511  34.447   8.562  1.00  0.00     0.072 A 
ATOM     11  C   UNL     1      21.190  30.753   9.976  1.00  0.00     0.018 A 
ATOM     12  C   UNL     1      21.699  33.138  10.269  1.00  0.00     0.072 A 
ATOM     13  N   UNL     1      22.116  34.304   9.873  1.00  0.00    -0.248 NA
ATOM     14  C   UNL     1      20.825  30.672  11.382  1.00  0.00    -0.032 A 
ATOM     15  C   UNL     1      21.292  33.021  11.699  1.00  0.00     0.029 A 
ATOM     16  C   UNL     1      20.884  31.856  12.212  1.00  0.00     0.010 A 
ATOM     17  C   UNL     1      20.430  29.503  11.911  1.00  0.00     0.017 C 
BRANCH  10  18
ATOM     18  C   UNL     1      22.977  35.793   8.147  1.00  0.00     0.000 A 
ATOM     19  C   UNL     1      22.562  36.325   6.916  1.00  0.00     0.010 A 
ATOM     20  C   UNL     1      23.806  36.575   8.968  1.00  0.00     0.010 A 
ATOM     21  C   UNL     1      22.983  37.592   6.506  1.00  0.00     0.001 A 
ATOM     22  C   UNL     1      24.226  37.844   8.558  1.00  0.00     0.001 A 
ATOM     23  C   UNL     1      23.817  38.349   7.325  1.00  0.00     0.000 A 
ENDBRANCH  10  18
ENDBRANCH   1   7
TORSDOF 5
ENDMDL
MODEL 4
REMARK VINA RESULT:    -5.641      4.247      7.832
REMARK INTER + INTRA:          -7.770
REMARK INTER:                  -6.903
REMARK INTRA:                  -0.867
REMARK UNBOUND:                -0.644
REMARK SMILES C=c1ccc2nc(-c3ccccc3)cc(=C(O)OCC)c2c1
REMARK SMILES IDX 16 1 17 2 18 4 19 5 20 6 15 7 14 8 21 9 7 10 22 11 5 12 6 13
REMARK SMILES IDX 2 14 4 15 3 16 1 17 8 18 9 19 13 20 10 21 12 22 11 23
REMARK H PARENT 17 3
ROOT
ATOM      1  C   UNL     1      23.307  36.635   6.997  1.00  0.00     0.284 C 
ENDROOT
BRANCH   1   2
ATOM      2  O   UNL     1      24.409  36.737   6.184  1.00  0.00    -0.481 OA
ATOM      3  H   UNL     1      24.902  35.915   6.346  1.00  0.00     0.297 HD
ENDBRANCH   1   2
BRANCH   1   4
ATOM      4  O   UNL     1      22.211  37.377   6.593  1.00  0.00    -0.465 OA
BRANCH   4   5
ATOM      5  C   UNL     1      22.618  38.697   6.217  1.00  0.00     0.229 C 
ATOM      6  C   UNL     1      22.483  39.594   7.434  1.00  0.00     0.049 C 
ENDBRANCH   4   5
ENDBRANCH   1   4
BRANCH   1   7
ATOM      7  C   UNL     1      23.248  35.803   8.069  1.00  0.00     0.066 A 
ATOM      8  C   UNL     1      22.687  34.461   7.872  1.00  0.00     0.045 A 
ATOM      9  C   UNL     1      23.713  36.122   9.433  1.00  0.00     0.015 A 
ATOM     10  C   UNL     1      22.620  33.568   8.877  1.00  0.00     0.072 A 
ATOM     11  C   UNL     1      24.212  37.289   9.886  1.00  0.00     0.018 A 
ATOM     12  C   UNL     1      23.579  34.977  10.421  1.00  0.00     0.072 A 
ATOM     13  N   UNL     1      23.079  33.807  10.153  1.00  0.00    -0.248 NA
ATOM     14  C   UNL     1      24.641  37.477  11.263  1.00  0.00    -0.032 A 
ATOM     15  C   UNL     1      24.053  35.200  11.817  1.00  0.00     0.029 A 
ATOM     16  C   UNL     1      24.549  36.380  12.203  1.00  0.00     0.010 A 
ATOM     17  C   UNL     1      25.125  38.663  11.663  1.00  0.00     0.017 C 
BRANCH  10  18
ATOM     18  C   UNL     1      22.060  32.221   8.609  1.00  0.00     0.000 A 
ATOM     19  C   UNL     1      21.988  31.746   7.291  1.00  0.00     0.010 A 
ATOM     20  C   UNL     1      21.620  31.382   9.647  1.00  0.00     0.010 A 
ATOM     21  C   UNL     1      21.470  30.479   7.013  1.00  0.00     0.001 A 
ATOM     22  C   UNL     1      21.102  30.114   9.369  1.00  0.00     0.001 A 
ATOM     23  C   UNL     1      21.024  29.666   8.052  1.00  0.00     0.000 A 
ENDBRANCH  10  18
ENDBRANCH   1   7
TORSDOF 5
ENDMDL
MODEL 5
REMARK VINA RESULT:    -5.613      3.337      4.917
REMARK INTER + INTRA:          -7.734
REMARK INTER:                  -7.005
REMARK INTRA:                  -0.729
REMARK UNBOUND:                -0.644
REMARK SMILES C=c1ccc2nc(-c3ccccc3)cc(=C(O)OCC)c2c1
REMARK SMILES IDX 16 1 17 2 18 4 19 5 20 6 15 7 14 8 21 9 7 10 22 11 5 12 6 13
REMARK SMILES IDX 2 14 4 15 3 16 1 17 8 18 9 19 13 20 10 21 12 22 11 23
REMARK H PARENT 17 3
ROOT
ATOM      1  C   UNL     1      21.168  32.545  10.626  1.00  0.00     0.284 C 
ENDROOT
BRANCH   1   2
ATOM      2  O   UNL     1      19.840  32.836  10.816  1.00  0.00    -0.481 OA
ATOM      3  H   UNL     1      19.832  33.784  11.033  1.00  0.00     0.297 HD
ENDBRANCH   1   2
BRANCH   1   4
ATOM      4  O   UNL     1      21.755  31.803  11.636  1.00  0.00    -0.465 OA
BRANCH   4   5
ATOM      5  C   UNL     1      20.756  31.074  12.359  1.00  0.00     0.229 C 
ATOM      6  C   UNL     1      20.617  29.706  11.717  1.00  0.00     0.049 C 
ENDBRANCH   4   5
ENDBRANCH   1   4
BRANCH   1   7
ATOM      7  C   UNL     1      21.849  32.875   9.498  1.00  0.00     0.066 A 
ATOM      8  C   UNL     1      22.163  34.291   9.270  1.00  0.00     0.045 A 
ATOM      9  C   UNL     1      22.322  31.929   8.469  1.00  0.00     0.015 A 
ATOM     10  C   UNL     1      22.859  34.696   8.192  1.00  0.00     0.072 A 
ATOM     11  C   UNL     1      22.119  30.597   8.414  1.00  0.00     0.018 A 
ATOM     12  C   UNL     1      23.111  32.573   7.344  1.00  0.00     0.072 A 
ATOM     13  N   UNL     1      23.355  33.846   7.229  1.00  0.00    -0.248 NA
ATOM     14  C   UNL     1      22.644  29.769   7.340  1.00  0.00    -0.032 A 
ATOM     15  C   UNL     1      23.654  31.687   6.275  1.00  0.00     0.029 A 
ATOM     16  C   UNL     1      23.428  30.369   6.282  1.00  0.00     0.010 A 
ATOM     17  C   UNL     1      22.408  28.448   7.330  1.00  0.00     0.017 C 
BRANCH  10  18
ATOM     18  C   UNL     1      23.161  36.139   8.028  1.00  0.00     0.000 A 
ATOM     19  C   UNL     1      22.646  36.838   6.926  1.00  0.00     0.010 A 
ATOM     20  C   UNL     1      23.932  36.845   8.966  1.00  0.00     0.010 A 
ATOM     21  C   UNL     1      22.912  38.198   6.752  1.00  0.00     0.001 A 
ATOM     22  C   UNL     1      24.198  38.206   8.793  1.00  0.00     0.001 A 
ATOM     23  C   UNL     1      23.691  38.880   7.684  1.00  0.00     0.000 A 
ENDBRANCH  10  18
ENDBRANCH   1   7
TORSDOF 5
ENDMDL
MODEL 6
REMARK VINA RESULT:    -5.535      2.016      5.356
REMARK INTER + INTRA:          -7.635
REMARK INTER:                  -6.986
REMARK INTRA:                  -0.649
REMARK UNBOUND:                -0.644
REMARK SMILES C=c1ccc2nc(-c3ccccc3)cc(=C(O)OCC)c2c1
REMARK SMILES IDX 16 1 17 2 18 4 19 5 20 6 15 7 14 8 21 9 7 10 22 11 5 12 6 13
REMARK SMILES IDX 2 14 4 15 3 16 1 17 8 18 9 19 13 20 10 21 12 22 11 23
REMARK H PARENT 17 3
ROOT
ATOM      1  C   UNL     1      21.249  30.471  10.199  1.00  0.00     0.284 C 
ENDROOT
BRANCH   1   2
ATOM      2  O   UNL     1      20.083  29.852  10.575  1.00  0.00    -0.481 OA
ATOM      3  H   UNL     1      19.513  29.920   9.790  1.00  0.00     0.297 HD
ENDBRANCH   1   2
BRANCH   1   4
ATOM      4  O   UNL     1      21.965  29.819   9.210  1.00  0.00    -0.465 OA
BRANCH   4   5
ATOM      5  C   UNL     1      21.106  29.494   8.111  1.00  0.00     0.229 C 
ATOM      6  C   UNL     1      21.437  30.430   6.963  1.00  0.00     0.049 C 
ENDBRANCH   4   5
ENDBRANCH   1   4
BRANCH   1   7
ATOM      7  C   UNL     1      21.642  31.676  10.686  1.00  0.00     0.066 A 
ATOM      8  C   UNL     1      22.114  32.686   9.730  1.00  0.00     0.045 A 
ATOM      9  C   UNL     1      21.629  32.079  12.105  1.00  0.00     0.015 A 
ATOM     10  C   UNL     1      22.495  33.914  10.129  1.00  0.00     0.072 A 
ATOM     11  C   UNL     1      21.296  31.329  13.175  1.00  0.00     0.018 A 
ATOM     12  C   UNL     1      22.067  33.511  12.353  1.00  0.00     0.072 A 
ATOM     13  N   UNL     1      22.459  34.346  11.435  1.00  0.00    -0.248 NA
ATOM     14  C   UNL     1      21.320  31.848  14.534  1.00  0.00    -0.032 A 
ATOM     15  C   UNL     1      22.055  34.014  13.756  1.00  0.00     0.029 A 
ATOM     16  C   UNL     1      21.703  33.223  14.775  1.00  0.00     0.010 A 
ATOM     17  C   UNL     1      20.985  31.056  15.564  1.00  0.00     0.017 C 
BRANCH  10  18
ATOM     18  C   UNL     1      22.944  34.896   9.112  1.00  0.00     0.000 A 
ATOM     19  C   UNL     1      22.423  34.837   7.810  1.00  0.00     0.010 A 
ATOM     20  C   UNL     1      23.863  35.912   9.419  1.00  0.00     0.010 A 
ATOM     21  C   UNL     1      22.826  35.754   6.836  1.00  0.00     0.001 A 
ATOM     22  C   UNL     1      24.265  36.830   8.445  1.00  0.00     0.001 A 
ATOM     23  C   UNL     1      23.750  36.747   7.153  1.00  0.00     0.000 A 
ENDBRANCH  10  18
ENDBRANCH   1   7
TORSDOF 5
ENDMDL
MODEL 7
REMARK VINA RESULT:    -5.348      2.762      6.714
REMARK INTER + INTRA:          -7.400
REMARK INTER:                  -6.676
REMARK INTRA:                  -0.724
REMARK UNBOUND:                -0.644
REMARK SMILES C=c1ccc2nc(-c3ccccc3)cc(=C(O)OCC)c2c1
REMARK SMILES IDX 16 1 17 2 18 4 19 5 20 6 15 7 14 8 21 9 7 10 22 11 5 12 6 13
REMARK SMILES IDX 2 14 4 15 3 16 1 17 8 18 9 19 13 20 10 21 12 22 11 23
REMARK H PARENT 17 3
ROOT
ATOM      1  C   UNL     1      22.444  35.416  12.960  1.00  0.00     0.284 C 
ENDROOT
BRANCH   1   2
ATOM      2  O   UNL     1      21.746  36.359  13.672  1.00  0.00    -0.481 OA
ATOM      3  H   UNL     1      21.096  36.705  13.037  1.00  0.00     0.297 HD
ENDBRANCH   1   2
BRANCH   1   4
ATOM      4  O   UNL     1      23.645  35.854  12.430  1.00  0.00    -0.465 OA
BRANCH   4   5
ATOM      5  C   UNL     1      24.438  36.476  13.447  1.00  0.00     0.229 C 
ATOM      6  C   UNL     1      25.233  35.391  14.152  1.00  0.00     0.049 C 
ENDBRANCH   4   5
ENDBRANCH   1   4
BRANCH   1   7
ATOM      7  C   UNL     1      22.047  34.123  12.849  1.00  0.00     0.066 A 
ATOM      8  C   UNL     1      21.967  33.537  11.505  1.00  0.00     0.045 A 
ATOM      9  C   UNL     1      21.694  33.230  13.970  1.00  0.00     0.015 A 
ATOM     10  C   UNL     1      21.609  32.254  11.312  1.00  0.00     0.072 A 
ATOM     11  C   UNL     1      21.635  33.533  15.282  1.00  0.00     0.018 A 
ATOM     12  C   UNL     1      21.344  31.812  13.554  1.00  0.00     0.072 A 
ATOM     13  N   UNL     1      21.312  31.375  12.329  1.00  0.00    -0.248 NA
ATOM     14  C   UNL     1      21.274  32.555  16.297  1.00  0.00    -0.032 A 
ATOM     15  C   UNL     1      21.004  30.833  14.625  1.00  0.00     0.029 A 
ATOM     16  C   UNL     1      20.973  31.193  15.912  1.00  0.00     0.010 A 
ATOM     17  C   UNL     1      21.224  32.912  17.590  1.00  0.00     0.017 C 
BRANCH  10  18
ATOM     18  C   UNL     1      21.565  31.717   9.930  1.00  0.00     0.000 A 
ATOM     19  C   UNL     1      21.210  30.376   9.715  1.00  0.00     0.010 A 
ATOM     20  C   UNL     1      21.844  32.522   8.813  1.00  0.00     0.010 A 
ATOM     21  C   UNL     1      21.158  29.848   8.423  1.00  0.00     0.001 A 
ATOM     22  C   UNL     1      21.790  31.994   7.521  1.00  0.00     0.001 A 
ATOM     23  C   UNL     1      21.451  30.656   7.327  1.00  0.00     0.000 A 
ENDBRANCH  10  18
ENDBRANCH   1   7
TORSDOF 5
ENDMDL
MODEL 8
REMARK VINA RESULT:    -5.167      2.634      4.170
REMARK INTER + INTRA:          -7.171
REMARK INTER:                  -6.468
REMARK INTRA:                  -0.703
REMARK UNBOUND:                -0.644
REMARK SMILES C=c1ccc2nc(-c3ccccc3)cc(=C(O)OCC)c2c1
REMARK SMILES IDX 16 1 17 2 18 4 19 5 20 6 15 7 14 8 21 9 7 10 22 11 5 12 6 13
REMARK SMILES IDX 2 14 4 15 3 16 1 17 8 18 9 19 13 20 10 21 12 22 11 23
REMARK H PARENT 17 3
ROOT
ATOM      1  C   UNL     1      23.762  34.368   9.879  1.00  0.00     0.284 C 
ENDROOT
BRANCH   1   2
ATOM      2  O   UNL     1      24.965  33.819   9.511  1.00  0.00    -0.481 OA
ATOM      3  H   UNL     1      25.550  33.996  10.268  1.00  0.00     0.297 HD
ENDBRANCH   1   2
BRANCH   1   4
ATOM      4  O   UNL     1      23.374  35.474   9.144  1.00  0.00    -0.465 OA
BRANCH   4   5
ATOM      5  C   UNL     1      22.792  35.063   7.902  1.00  0.00     0.229 C 
ATOM      6  C   UNL     1      22.723  36.276   6.992  1.00  0.00     0.049 C 
ENDBRANCH   4   5
ENDBRANCH   1   4
BRANCH   1   7
ATOM      7  C   UNL     1      22.958  33.828  10.831  1.00  0.00     0.066 A 
ATOM      8  C   UNL     1      22.865  34.512  12.127  1.00  0.00     0.045 A 
ATOM      9  C   UNL     1      22.144  32.607  10.679  1.00  0.00     0.015 A 
ATOM     10  C   UNL     1      22.069  34.057  13.111  1.00  0.00     0.072 A 
ATOM     11  C   UNL     1      22.091  31.773   9.621  1.00  0.00     0.018 A 
ATOM     12  C   UNL     1      21.290  32.271  11.889  1.00  0.00     0.072 A 
ATOM     13  N   UNL     1      21.262  32.947  13.000  1.00  0.00    -0.248 NA
ATOM     14  C   UNL     1      21.240  30.594   9.594  1.00  0.00    -0.032 A 
ATOM     15  C   UNL     1      20.412  31.068  11.813  1.00  0.00     0.029 A 
ATOM     16  C   UNL     1      20.397  30.286  10.729  1.00  0.00     0.010 A 
ATOM     17  C   UNL     1      21.230  29.794   8.516  1.00  0.00     0.017 C 
BRANCH  10  18
ATOM     18  C   UNL     1      22.005  34.804  14.391  1.00  0.00     0.000 A 
ATOM     19  C   UNL     1      21.604  34.144  15.563  1.00  0.00     0.010 A 
ATOM     20  C   UNL     1      22.363  36.159  14.476  1.00  0.00     0.010 A 
ATOM     21  C   UNL     1      21.540  34.825  16.781  1.00  0.00     0.001 A 
ATOM     22  C   UNL     1      22.300  36.840  15.695  1.00  0.00     0.001 A 
ATOM     23  C   UNL     1      21.885  36.173  16.846  1.00  0.00     0.000 A 
ENDBRANCH  10  18
ENDBRANCH   1   7
TORSDOF 5
ENDMDL
MODEL 9
REMARK VINA RESULT:    -5.063      1.950      2.887
REMARK INTER + INTRA:          -7.039
REMARK INTER:                  -6.239
REMARK INTRA:                  -0.800
REMARK UNBOUND:                -0.644
REMARK SMILES C=c1ccc2nc(-c3ccccc3)cc(=C(O)OCC)c2c1
REMARK SMILES IDX 16 1 17 2 18 4 19 5 20 6 15 7 14 8 21 9 7 10 22 11 5 12 6 13
REMARK SMILES IDX 2 14 4 15 3 16 1 17 8 18 9 19 13 20 10 21 12 22 11 23
REMARK H PARENT 17 3
ROOT
ATOM      1  C   UNL     1      20.748  32.384  11.584  1.00  0.00     0.284 C 
ENDROOT
BRANCH   1   2
ATOM      2  O   UNL     1      19.448  32.522  11.167  1.00  0.00    -0.481 OA
ATOM      3  H   UNL     1      19.517  33.010  10.328  1.00  0.00     0.297 HD
ENDBRANCH   1   2
BRANCH   1   4
ATOM      4  O   UNL     1      21.163  31.079  11.785  1.00  0.00    -0.465 OA
BRANCH   4   5
ATOM      5  C   UNL     1      20.425  30.189  10.940  1.00  0.00     0.229 C 
ATOM      6  C   UNL     1      21.186  30.041   9.635  1.00  0.00     0.049 C 
ENDBRANCH   4   5
ENDBRANCH   1   4
BRANCH   1   7
ATOM      7  C   UNL     1      21.605  33.430  11.710  1.00  0.00     0.066 A 
ATOM      8  C   UNL     1      21.563  34.211  12.952  1.00  0.00     0.045 A 
ATOM      9  C   UNL     1      22.598  33.855  10.705  1.00  0.00     0.015 A 
ATOM     10  C   UNL     1      22.399  35.245  13.165  1.00  0.00     0.072 A 
ATOM     11  C   UNL     1      22.800  33.346   9.473  1.00  0.00     0.018 A 
ATOM     12  C   UNL     1      23.466  35.022  11.140  1.00  0.00     0.072 A 
ATOM     13  N   UNL     1      23.367  35.651  12.275  1.00  0.00    -0.248 NA
ATOM     14  C   UNL     1      23.822  33.856   8.572  1.00  0.00    -0.032 A 
ATOM     15  C   UNL     1      24.519  35.500  10.198  1.00  0.00     0.029 A 
ATOM     16  C   UNL     1      24.677  34.945   8.992  1.00  0.00     0.010 A 
ATOM     17  C   UNL     1      23.977  33.315   7.353  1.00  0.00     0.017 C 
BRANCH  10  18
ATOM     18  C   UNL     1      22.320  35.983  14.449  1.00  0.00     0.000 A 
ATOM     19  C   UNL     1      22.111  35.279  15.645  1.00  0.00     0.010 A 
ATOM     20  C   UNL     1      22.478  37.378  14.513  1.00  0.00     0.010 A 
ATOM     21  C   UNL     1      22.038  35.951  16.867  1.00  0.00     0.001 A 
ATOM     22  C   UNL     1      22.406  38.050  15.736  1.00  0.00     0.001 A 
ATOM     23  C   UNL     1      22.182  37.336  16.912  1.00  0.00     0.000 A 
ENDBRANCH  10  18
ENDBRANCH   1   7
TORSDOF 5
ENDMDL
