MODEL 1
REMARK VINA RESULT:    -6.231      0.000      0.000
REMARK INTER + INTRA:          -7.776
REMARK INTER:                  -7.324
REMARK INTRA:                  -0.452
REMARK UNBOUND:                -0.452
REMARK SMILES OC1=C[C@H](c2ccc(O)cc2)Oc2cc(O)cc(O)c21
REMARK SMILES IDX 2 1 3 2 4 3 12 4 13 5 14 6 15 7 17 8 18 9 20 10 1 11 5 13
REMARK SMILES IDX 6 14 11 15 7 16 10 17 8 18 9 19 19 21 16 23
REMARK H PARENT 1 12 9 20 19 22 16 24
ROOT
ATOM      1  C   UNL     1      20.777  30.293  12.628  1.00  0.00     0.130 C 
ATOM      2  C   UNL     1      20.439  30.366  11.341  1.00  0.00     0.069 C 
ATOM      3  C   UNL     1      20.317  31.676  10.616  1.00  0.00     0.230 C 
ATOM      4  O   UNL     1      20.344  32.858  11.443  1.00  0.00    -0.480 OA
ATOM      5  C   UNL     1      20.823  32.747  12.721  1.00  0.00     0.139 A 
ATOM      6  C   UNL     1      21.032  33.956  13.392  1.00  0.00     0.093 A 
ATOM      7  C   UNL     1      21.544  33.944  14.685  1.00  0.00     0.123 A 
ATOM      8  C   UNL     1      21.867  32.747  15.310  1.00  0.00     0.093 A 
ATOM      9  C   UNL     1      21.666  31.550  14.631  1.00  0.00     0.133 A 
ATOM     10  C   UNL     1      21.100  31.524  13.346  1.00  0.00     0.100 A 
ENDROOT
BRANCH   1  11
ATOM     11  O   UNL     1      20.778  29.094  13.303  1.00  0.00    -0.507 OA
ATOM     12  H   UNL     1      19.850  28.907  13.556  1.00  0.00     0.293 HD
ENDBRANCH   1  11
BRANCH   3  13
ATOM     13  C   UNL     1      21.336  31.814   9.496  1.00  0.00    -0.003 A 
ATOM     14  C   UNL     1      21.792  30.692   8.783  1.00  0.00     0.012 A 
ATOM     15  C   UNL     1      21.827  33.082   9.139  1.00  0.00     0.012 A 
ATOM     16  C   UNL     1      22.718  30.835   7.747  1.00  0.00     0.046 A 
ATOM     17  C   UNL     1      22.754  33.224   8.101  1.00  0.00     0.046 A 
ATOM     18  C   UNL     1      23.191  32.096   7.415  1.00  0.00     0.115 A 
BRANCH  18  19
ATOM     19  O   UNL     1      24.094  32.190   6.398  1.00  0.00    -0.508 OA
ATOM     20  H   UNL     1      24.235  33.128   6.194  1.00  0.00     0.293 HD
ENDBRANCH  18  19
ENDBRANCH   3  13
BRANCH   9  21
ATOM     21  O   UNL     1      22.068  30.402  15.262  1.00  0.00    -0.507 OA
ATOM     22  H   UNL     1      22.377  29.790  14.562  1.00  0.00     0.293 HD
ENDBRANCH   9  21
BRANCH   7  23
ATOM     23  O   UNL     1      21.762  35.101  15.373  1.00  0.00    -0.508 OA
ATOM     24  H   UNL     1      22.189  34.887  16.219  1.00  0.00     0.293 HD
ENDBRANCH   7  23
TORSDOF 5
ENDMDL
MODEL 2
REMARK VINA RESULT:    -5.615      2.063      3.348
REMARK INTER + INTRA:          -7.052
REMARK INTER:                  -6.648
REMARK INTRA:                  -0.404
REMARK UNBOUND:                -0.452
REMARK SMILES OC1=C[C@H](c2ccc(O)cc2)Oc2cc(O)cc(O)c21
REMARK SMILES IDX 2 1 3 2 4 3 12 4 13 5 14 6 15 7 17 8 18 9 20 10 1 11 5 13
REMARK SMILES IDX 6 14 11 15 7 16 10 17 8 18 9 19 19 21 16 23
REMARK H PARENT 1 12 9 20 19 22 16 24
ROOT
ATOM      1  C   UNL     1      21.549  33.811  13.008  1.00  0.00     0.130 C 
ATOM      2  C   UNL     1      22.067  33.630  11.794  1.00  0.00     0.069 C 
ATOM      3  C   UNL     1      22.979  32.480  11.474  1.00  0.00     0.230 C 
ATOM      4  O   UNL     1      23.459  31.723  12.604  1.00  0.00    -0.480 OA
ATOM      5  C   UNL     1      22.804  31.854  13.800  1.00  0.00     0.139 A 
ATOM      6  C   UNL     1      23.170  30.937  14.790  1.00  0.00     0.093 A 
ATOM      7  C   UNL     1      22.538  30.974  16.028  1.00  0.00     0.123 A 
ATOM      8  C   UNL     1      21.534  31.898  16.286  1.00  0.00     0.093 A 
ATOM      9  C   UNL     1      21.169  32.800  15.291  1.00  0.00     0.133 A 
ATOM     10  C   UNL     1      21.825  32.824  14.050  1.00  0.00     0.100 A 
ENDROOT
BRANCH   1  11
ATOM     11  O   UNL     1      20.805  34.927  13.311  1.00  0.00    -0.507 OA
ATOM     12  H   UNL     1      20.849  35.521  12.533  1.00  0.00     0.293 HD
ENDBRANCH   1  11
BRANCH   3  13
ATOM     13  C   UNL     1      22.378  31.534  10.445  1.00  0.00    -0.003 A 
ATOM     14  C   UNL     1      21.281  30.715  10.761  1.00  0.00     0.012 A 
ATOM     15  C   UNL     1      22.904  31.480   9.143  1.00  0.00     0.012 A 
ATOM     16  C   UNL     1      20.730  29.862   9.804  1.00  0.00     0.046 A 
ATOM     17  C   UNL     1      22.352  30.624   8.184  1.00  0.00     0.046 A 
ATOM     18  C   UNL     1      21.268  29.822   8.525  1.00  0.00     0.115 A 
BRANCH  18  19
ATOM     19  O   UNL     1      20.701  28.974   7.621  1.00  0.00    -0.508 OA
ATOM     20  H   UNL     1      21.392  28.650   7.023  1.00  0.00     0.293 HD
ENDBRANCH  18  19
ENDBRANCH   3  13
BRANCH   9  21
ATOM     21  O   UNL     1      20.125  33.643  15.569  1.00  0.00    -0.507 OA
ATOM     22  H   UNL     1      19.482  33.128  16.099  1.00  0.00     0.293 HD
ENDBRANCH   9  21
BRANCH   7  23
ATOM     23  O   UNL     1      22.867  30.097  17.020  1.00  0.00    -0.508 OA
ATOM     24  H   UNL     1      22.822  30.559  17.874  1.00  0.00     0.293 HD
ENDBRANCH   7  23
TORSDOF 5
ENDMDL
MODEL 3
REMARK VINA RESULT:    -5.365      2.128      5.617
REMARK INTER + INTRA:          -6.758
REMARK INTER:                  -6.302
REMARK INTRA:                  -0.457
REMARK UNBOUND:                -0.452
REMARK SMILES OC1=C[C@H](c2ccc(O)cc2)Oc2cc(O)cc(O)c21
REMARK SMILES IDX 2 1 3 2 4 3 12 4 13 5 14 6 15 7 17 8 18 9 20 10 1 11 5 13
REMARK SMILES IDX 6 14 11 15 7 16 10 17 8 18 9 19 19 21 16 23
REMARK H PARENT 1 12 9 20 19 22 16 24
ROOT
ATOM      1  C   UNL     1      21.725  30.770  13.517  1.00  0.00     0.130 C 
ATOM      2  C   UNL     1      22.524  31.628  14.149  1.00  0.00     0.069 C 
ATOM      3  C   UNL     1      23.465  32.540  13.414  1.00  0.00     0.230 C 
ATOM      4  O   UNL     1      23.637  32.267  12.008  1.00  0.00    -0.480 OA
ATOM      5  C   UNL     1      22.708  31.480  11.381  1.00  0.00     0.139 A 
ATOM      6  C   UNL     1      22.801  31.435   9.987  1.00  0.00     0.093 A 
ATOM      7  C   UNL     1      21.883  30.684   9.261  1.00  0.00     0.123 A 
ATOM      8  C   UNL     1      20.864  29.993   9.903  1.00  0.00     0.093 A 
ATOM      9  C   UNL     1      20.773  30.052  11.290  1.00  0.00     0.133 A 
ATOM     10  C   UNL     1      21.716  30.756  12.056  1.00  0.00     0.100 A 
ENDROOT
BRANCH   1  11
ATOM     11  O   UNL     1      20.950  29.869  14.209  1.00  0.00    -0.507 OA
ATOM     12  H   UNL     1      21.561  29.288  14.706  1.00  0.00     0.293 HD
ENDBRANCH   1  11
BRANCH   3  13
ATOM     13  C   UNL     1      23.120  34.008  13.611  1.00  0.00    -0.003 A 
ATOM     14  C   UNL     1      23.381  34.958  12.609  1.00  0.00     0.012 A 
ATOM     15  C   UNL     1      22.509  34.437  14.802  1.00  0.00     0.012 A 
ATOM     16  C   UNL     1      23.047  36.301  12.797  1.00  0.00     0.046 A 
ATOM     17  C   UNL     1      22.175  35.782  14.989  1.00  0.00     0.046 A 
ATOM     18  C   UNL     1      22.448  36.702  13.983  1.00  0.00     0.115 A 
BRANCH  18  19
ATOM     19  O   UNL     1      22.138  38.022  14.125  1.00  0.00    -0.508 OA
ATOM     20  H   UNL     1      22.893  38.475  14.535  1.00  0.00     0.293 HD
ENDBRANCH  18  19
ENDBRANCH   3  13
BRANCH   9  21
ATOM     21  O   UNL     1      19.708  29.414  11.871  1.00  0.00    -0.507 OA
ATOM     22  H   UNL     1      18.938  29.563  11.285  1.00  0.00     0.293 HD
ENDBRANCH   9  21
BRANCH   7  23
ATOM     23  O   UNL     1      21.939  30.615   7.900  1.00  0.00    -0.508 OA
ATOM     24  H   UNL     1      21.313  29.936   7.594  1.00  0.00     0.293 HD
ENDBRANCH   7  23
TORSDOF 5
ENDMDL
MODEL 4
REMARK VINA RESULT:    -5.348      1.426      2.028
REMARK INTER + INTRA:          -6.737
REMARK INTER:                  -6.357
REMARK INTRA:                  -0.380
REMARK UNBOUND:                -0.452
REMARK SMILES OC1=C[C@H](c2ccc(O)cc2)Oc2cc(O)cc(O)c21
REMARK SMILES IDX 2 1 3 2 4 3 12 4 13 5 14 6 15 7 17 8 18 9 20 10 1 11 5 13
REMARK SMILES IDX 6 14 11 15 7 16 10 17 8 18 9 19 19 21 16 23
REMARK H PARENT 1 12 9 20 19 22 16 24
ROOT
ATOM      1  C   UNL     1      22.375  30.775  13.439  1.00  0.00     0.130 C 
ATOM      2  C   UNL     1      21.607  30.218  12.503  1.00  0.00     0.069 C 
ATOM      3  C   UNL     1      20.639  31.018  11.678  1.00  0.00     0.230 C 
ATOM      4  O   UNL     1      20.406  32.372  12.117  1.00  0.00    -0.480 OA
ATOM      5  C   UNL     1      21.303  32.938  12.984  1.00  0.00     0.139 A 
ATOM      6  C   UNL     1      21.150  34.312  13.196  1.00  0.00     0.093 A 
ATOM      7  C   UNL     1      22.032  34.979  14.038  1.00  0.00     0.123 A 
ATOM      8  C   UNL     1      23.075  34.302  14.656  1.00  0.00     0.093 A 
ATOM      9  C   UNL     1      23.225  32.937  14.431  1.00  0.00     0.133 A 
ATOM     10  C   UNL     1      22.320  32.223  13.630  1.00  0.00     0.100 A 
ENDROOT
BRANCH   1  11
ATOM     11  O   UNL     1      23.175  30.013  14.258  1.00  0.00    -0.507 OA
ATOM     12  H   UNL     1      23.330  29.163  13.797  1.00  0.00     0.293 HD
ENDBRANCH   1  11
BRANCH   3  13
ATOM     13  C   UNL     1      20.999  31.016  10.200  1.00  0.00    -0.003 A 
ATOM     14  C   UNL     1      21.434  32.185   9.555  1.00  0.00     0.012 A 
ATOM     15  C   UNL     1      20.922  29.826   9.456  1.00  0.00     0.012 A 
ATOM     16  C   UNL     1      21.775  32.166   8.200  1.00  0.00     0.046 A 
ATOM     17  C   UNL     1      21.263  29.808   8.099  1.00  0.00     0.046 A 
ATOM     18  C   UNL     1      21.687  30.981   7.485  1.00  0.00     0.115 A 
BRANCH  18  19
ATOM     19  O   UNL     1      22.028  31.008   6.165  1.00  0.00    -0.508 OA
ATOM     20  H   UNL     1      21.384  30.480   5.667  1.00  0.00     0.293 HD
ENDBRANCH  18  19
ENDBRANCH   3  13
BRANCH   9  21
ATOM     21  O   UNL     1      24.312  32.329  15.005  1.00  0.00    -0.507 OA
ATOM     22  H   UNL     1      24.235  32.472  15.970  1.00  0.00     0.293 HD
ENDBRANCH   9  21
BRANCH   7  23
ATOM     23  O   UNL     1      21.916  36.318  14.271  1.00  0.00    -0.508 OA
ATOM     24  H   UNL     1      22.572  36.789  13.730  1.00  0.00     0.293 HD
ENDBRANCH   7  23
TORSDOF 5
ENDMDL
MODEL 5
REMARK VINA RESULT:    -5.302      2.798      5.246
REMARK INTER + INTRA:          -6.684
REMARK INTER:                  -6.331
REMARK INTRA:                  -0.353
REMARK UNBOUND:                -0.452
REMARK SMILES OC1=C[C@H](c2ccc(O)cc2)Oc2cc(O)cc(O)c21
REMARK SMILES IDX 2 1 3 2 4 3 12 4 13 5 14 6 15 7 17 8 18 9 20 10 1 11 5 13
REMARK SMILES IDX 6 14 11 15 7 16 10 17 8 18 9 19 19 21 16 23
REMARK H PARENT 1 12 9 20 19 22 16 24
ROOT
ATOM      1  C   UNL     1      21.829  33.003  11.372  1.00  0.00     0.130 C 
ATOM      2  C   UNL     1      22.708  33.983  11.168  1.00  0.00     0.069 C 
ATOM      3  C   UNL     1      23.692  33.956  10.033  1.00  0.00     0.230 C 
ATOM      4  O   UNL     1      23.801  32.705   9.324  1.00  0.00    -0.480 OA
ATOM      5  C   UNL     1      22.799  31.783   9.473  1.00  0.00     0.139 A 
ATOM      6  C   UNL     1      22.847  30.695   8.596  1.00  0.00     0.093 A 
ATOM      7  C   UNL     1      21.855  29.722   8.654  1.00  0.00     0.123 A 
ATOM      8  C   UNL     1      20.807  29.828   9.559  1.00  0.00     0.093 A 
ATOM      9  C   UNL     1      20.762  30.920  10.420  1.00  0.00     0.133 A 
ATOM     10  C   UNL     1      21.776  31.891  10.425  1.00  0.00     0.100 A 
ENDROOT
BRANCH   1  11
ATOM     11  O   UNL     1      21.011  32.991  12.477  1.00  0.00    -0.507 OA
ATOM     12  H   UNL     1      21.556  32.695  13.235  1.00  0.00     0.293 HD
ENDBRANCH   1  11
BRANCH   3  13
ATOM     13  C   UNL     1      23.463  35.086   9.042  1.00  0.00    -0.003 A 
ATOM     14  C   UNL     1      23.928  36.386   9.299  1.00  0.00     0.012 A 
ATOM     15  C   UNL     1      22.793  34.838   7.831  1.00  0.00     0.012 A 
ATOM     16  C   UNL     1      23.722  37.412   8.373  1.00  0.00     0.046 A 
ATOM     17  C   UNL     1      22.587  35.866   6.905  1.00  0.00     0.046 A 
ATOM     18  C   UNL     1      23.055  37.145   7.186  1.00  0.00     0.115 A 
BRANCH  18  19
ATOM     19  O   UNL     1      22.875  38.175   6.311  1.00  0.00    -0.508 OA
ATOM     20  H   UNL     1      23.107  37.869   5.420  1.00  0.00     0.293 HD
ENDBRANCH  18  19
ENDBRANCH   3  13
BRANCH   9  21
ATOM     21  O   UNL     1      19.670  31.018  11.243  1.00  0.00    -0.507 OA
ATOM     22  H   UNL     1      19.394  31.957  11.233  1.00  0.00     0.293 HD
ENDBRANCH   9  21
BRANCH   7  23
ATOM     23  O   UNL     1      21.866  28.646   7.816  1.00  0.00    -0.508 OA
ATOM     24  H   UNL     1      21.287  27.957   8.184  1.00  0.00     0.293 HD
ENDBRANCH   7  23
TORSDOF 5
ENDMDL
MODEL 6
REMARK VINA RESULT:    -5.277      1.982      6.086
REMARK INTER + INTRA:          -6.655
REMARK INTER:                  -6.286
REMARK INTRA:                  -0.369
REMARK UNBOUND:                -0.452
REMARK SMILES OC1=C[C@H](c2ccc(O)cc2)Oc2cc(O)cc(O)c21
REMARK SMILES IDX 2 1 3 2 4 3 12 4 13 5 14 6 15 7 17 8 18 9 20 10 1 11 5 13
REMARK SMILES IDX 6 14 11 15 7 16 10 17 8 18 9 19 19 21 16 23
REMARK H PARENT 1 12 9 20 19 22 16 24
ROOT
ATOM      1  C   UNL     1      21.276  30.135   9.494  1.00  0.00     0.130 C 
ATOM      2  C   UNL     1      21.320  29.821  10.787  1.00  0.00     0.069 C 
ATOM      3  C   UNL     1      22.295  30.460  11.736  1.00  0.00     0.230 C 
ATOM      4  O   UNL     1      23.340  31.247  11.130  1.00  0.00    -0.480 OA
ATOM      5  C   UNL     1      23.180  31.651   9.831  1.00  0.00     0.139 A 
ATOM      6  C   UNL     1      24.109  32.590   9.374  1.00  0.00     0.093 A 
ATOM      7  C   UNL     1      24.009  33.080   8.076  1.00  0.00     0.123 A 
ATOM      8  C   UNL     1      22.986  32.664   7.236  1.00  0.00     0.093 A 
ATOM      9  C   UNL     1      22.059  31.737   7.704  1.00  0.00     0.133 A 
ATOM     10  C   UNL     1      22.163  31.181   8.989  1.00  0.00     0.100 A 
ENDROOT
BRANCH   1  11
ATOM     11  O   UNL     1      20.454  29.464   8.619  1.00  0.00    -0.507 OA
ATOM     12  H   UNL     1      19.611  29.298   9.089  1.00  0.00     0.293 HD
ENDBRANCH   1  11
BRANCH   3  13
ATOM     13  C   UNL     1      21.601  31.277  12.815  1.00  0.00    -0.003 A 
ATOM     14  C   UNL     1      21.399  30.760  14.105  1.00  0.00     0.012 A 
ATOM     15  C   UNL     1      21.165  32.585  12.539  1.00  0.00     0.012 A 
ATOM     16  C   UNL     1      20.773  31.526  15.090  1.00  0.00     0.046 A 
ATOM     17  C   UNL     1      20.537  33.352  13.526  1.00  0.00     0.046 A 
ATOM     18  C   UNL     1      20.347  32.813  14.794  1.00  0.00     0.115 A 
BRANCH  18  19
ATOM     19  O   UNL     1      19.740  33.527  15.785  1.00  0.00    -0.508 OA
ATOM     20  H   UNL     1      18.889  33.108  15.992  1.00  0.00     0.293 HD
ENDBRANCH  18  19
ENDBRANCH   3  13
BRANCH   9  21
ATOM     21  O   UNL     1      21.026  31.413   6.862  1.00  0.00    -0.507 OA
ATOM     22  H   UNL     1      21.406  30.854   6.154  1.00  0.00     0.293 HD
ENDBRANCH   9  21
BRANCH   7  23
ATOM     23  O   UNL     1      24.897  33.996   7.592  1.00  0.00    -0.508 OA
ATOM     24  H   UNL     1      25.690  33.530   7.279  1.00  0.00     0.293 HD
ENDBRANCH   7  23
TORSDOF 5
ENDMDL
MODEL 7
REMARK VINA RESULT:    -5.224      3.949      7.126
REMARK INTER + INTRA:          -6.592
REMARK INTER:                  -6.143
REMARK INTRA:                  -0.449
REMARK UNBOUND:                -0.452
REMARK SMILES OC1=C[C@H](c2ccc(O)cc2)Oc2cc(O)cc(O)c21
REMARK SMILES IDX 2 1 3 2 4 3 12 4 13 5 14 6 15 7 17 8 18 9 20 10 1 11 5 13
REMARK SMILES IDX 6 14 11 15 7 16 10 17 8 18 9 19 19 21 16 23
REMARK H PARENT 1 12 9 20 19 22 16 24
ROOT
ATOM      1  C   UNL     1      22.561  35.192   7.660  1.00  0.00     0.130 C 
ATOM      2  C   UNL     1      22.706  34.157   8.487  1.00  0.00     0.069 C 
ATOM      3  C   UNL     1      23.472  34.261   9.775  1.00  0.00     0.230 C 
ATOM      4  O   UNL     1      24.247  35.464   9.952  1.00  0.00    -0.480 OA
ATOM      5  C   UNL     1      23.965  36.542   9.155  1.00  0.00     0.139 A 
ATOM      6  C   UNL     1      24.589  37.739   9.520  1.00  0.00     0.093 A 
ATOM      7  C   UNL     1      24.341  38.894   8.787  1.00  0.00     0.123 A 
ATOM      8  C   UNL     1      23.467  38.878   7.709  1.00  0.00     0.093 A 
ATOM      9  C   UNL     1      22.842  37.684   7.360  1.00  0.00     0.133 A 
ATOM     10  C   UNL     1      23.113  36.489   8.045  1.00  0.00     0.100 A 
ENDROOT
BRANCH   1  11
ATOM     11  O   UNL     1      21.950  35.051   6.435  1.00  0.00    -0.507 OA
ATOM     12  H   UNL     1      21.473  35.887   6.256  1.00  0.00     0.293 HD
ENDBRANCH   1  11
BRANCH   3  13
ATOM     13  C   UNL     1      22.588  34.040  10.993  1.00  0.00    -0.003 A 
ATOM     14  C   UNL     1      21.514  33.135  10.960  1.00  0.00     0.012 A 
ATOM     15  C   UNL     1      22.848  34.730  12.190  1.00  0.00     0.012 A 
ATOM     16  C   UNL     1      20.719  32.931  12.089  1.00  0.00     0.046 A 
ATOM     17  C   UNL     1      22.051  34.526  13.320  1.00  0.00     0.046 A 
ATOM     18  C   UNL     1      20.993  33.626  13.258  1.00  0.00     0.115 A 
BRANCH  18  19
ATOM     19  O   UNL     1      20.191  33.398  14.338  1.00  0.00    -0.508 OA
ATOM     20  H   UNL     1      19.643  32.618  14.157  1.00  0.00     0.293 HD
ENDBRANCH  18  19
ENDBRANCH   3  13
BRANCH   9  21
ATOM     21  O   UNL     1      21.933  37.735   6.335  1.00  0.00    -0.507 OA
ATOM     22  H   UNL     1      21.581  38.649   6.318  1.00  0.00     0.293 HD
ENDBRANCH   9  21
BRANCH   7  23
ATOM     23  O   UNL     1      24.930  40.081   9.111  1.00  0.00    -0.508 OA
ATOM     24  H   UNL     1      25.872  40.039   8.872  1.00  0.00     0.293 HD
ENDBRANCH   7  23
TORSDOF 5
ENDMDL
MODEL 8
REMARK VINA RESULT:    -5.181      2.499      4.056
REMARK INTER + INTRA:          -6.542
REMARK INTER:                  -6.091
REMARK INTRA:                  -0.451
REMARK UNBOUND:                -0.452
REMARK SMILES OC1=C[C@H](c2ccc(O)cc2)Oc2cc(O)cc(O)c21
REMARK SMILES IDX 2 1 3 2 4 3 12 4 13 5 14 6 15 7 17 8 18 9 20 10 1 11 5 13
REMARK SMILES IDX 6 14 11 15 7 16 10 17 8 18 9 19 19 21 16 23
REMARK H PARENT 1 12 9 20 19 22 16 24
ROOT
ATOM      1  C   UNL     1      23.985  33.075  12.577  1.00  0.00     0.130 C 
ATOM      2  C   UNL     1      24.624  33.437  11.466  1.00  0.00     0.069 C 
ATOM      3  C   UNL     1      24.321  32.823  10.129  1.00  0.00     0.230 C 
ATOM      4  O   UNL     1      23.478  31.652  10.150  1.00  0.00    -0.480 OA
ATOM      5  C   UNL     1      22.743  31.400  11.278  1.00  0.00     0.139 A 
ATOM      6  C   UNL     1      21.785  30.389  11.157  1.00  0.00     0.093 A 
ATOM      7  C   UNL     1      20.972  30.082  12.242  1.00  0.00     0.123 A 
ATOM      8  C   UNL     1      21.085  30.780  13.437  1.00  0.00     0.093 A 
ATOM      9  C   UNL     1      22.034  31.793  13.543  1.00  0.00     0.133 A 
ATOM     10  C   UNL     1      22.908  32.091  12.486  1.00  0.00     0.100 A 
ENDROOT
BRANCH   1  11
ATOM     11  O   UNL     1      24.350  33.568  13.808  1.00  0.00    -0.507 OA
ATOM     12  H   UNL     1      25.055  34.230  13.655  1.00  0.00     0.293 HD
ENDBRANCH   1  11
BRANCH   3  13
ATOM     13  C   UNL     1      23.763  33.836   9.141  1.00  0.00    -0.003 A 
ATOM     14  C   UNL     1      23.908  35.217   9.352  1.00  0.00     0.012 A 
ATOM     15  C   UNL     1      23.104  33.399   7.978  1.00  0.00     0.012 A 
ATOM     16  C   UNL     1      23.403  36.136   8.430  1.00  0.00     0.046 A 
ATOM     17  C   UNL     1      22.598  34.320   7.055  1.00  0.00     0.046 A 
ATOM     18  C   UNL     1      22.753  35.682   7.291  1.00  0.00     0.115 A 
BRANCH  18  19
ATOM     19  O   UNL     1      22.275  36.613   6.417  1.00  0.00    -0.508 OA
ATOM     20  H   UNL     1      22.995  37.220   6.185  1.00  0.00     0.293 HD
ENDBRANCH  18  19
ENDBRANCH   3  13
BRANCH   9  21
ATOM     21  O   UNL     1      22.058  32.501  14.717  1.00  0.00    -0.507 OA
ATOM     22  H   UNL     1      21.836  31.868  15.430  1.00  0.00     0.293 HD
ENDBRANCH   9  21
BRANCH   7  23
ATOM     23  O   UNL     1      20.026  29.102  12.166  1.00  0.00    -0.508 OA
ATOM     24  H   UNL     1      19.341  29.375  11.532  1.00  0.00     0.293 HD
ENDBRANCH   7  23
TORSDOF 5
ENDMDL
MODEL 9
REMARK VINA RESULT:    -5.054      8.048      9.983
REMARK INTER + INTRA:          -6.393
REMARK INTER:                  -5.962
REMARK INTRA:                  -0.431
REMARK UNBOUND:                -0.452
REMARK SMILES OC1=C[C@H](c2ccc(O)cc2)Oc2cc(O)cc(O)c21
REMARK SMILES IDX 2 1 3 2 4 3 12 4 13 5 14 6 15 7 17 8 18 9 20 10 1 11 5 13
REMARK SMILES IDX 6 14 11 15 7 16 10 17 8 18 9 19 19 21 16 23
REMARK H PARENT 1 12 9 20 19 22 16 24
ROOT
ATOM      1  C   UNL     1      21.006  43.184   9.607  1.00  0.00     0.130 C 
ATOM      2  C   UNL     1      22.245  42.804   9.297  1.00  0.00     0.069 C 
ATOM      3  C   UNL     1      23.009  41.809  10.123  1.00  0.00     0.230 C 
ATOM      4  O   UNL     1      22.429  41.471  11.399  1.00  0.00    -0.480 OA
ATOM      5  C   UNL     1      21.110  41.772  11.614  1.00  0.00     0.139 A 
ATOM      6  C   UNL     1      20.549  41.225  12.772  1.00  0.00     0.093 A 
ATOM      7  C   UNL     1      19.208  41.452  13.059  1.00  0.00     0.123 A 
ATOM      8  C   UNL     1      18.414  42.200  12.200  1.00  0.00     0.093 A 
ATOM      9  C   UNL     1      18.978  42.732  11.045  1.00  0.00     0.133 A 
ATOM     10  C   UNL     1      20.342  42.567  10.753  1.00  0.00     0.100 A 
ENDROOT
BRANCH   1  11
ATOM     11  O   UNL     1      20.362  44.176   8.904  1.00  0.00    -0.507 OA
ATOM     12  H   UNL     1      19.581  44.441   9.433  1.00  0.00     0.293 HD
ENDBRANCH   1  11
BRANCH   3  13
ATOM     13  C   UNL     1      23.321  40.536   9.351  1.00  0.00    -0.003 A 
ATOM     14  C   UNL     1      24.088  39.507   9.922  1.00  0.00     0.012 A 
ATOM     15  C   UNL     1      22.821  40.358   8.049  1.00  0.00     0.012 A 
ATOM     16  C   UNL     1      24.355  38.337   9.208  1.00  0.00     0.046 A 
ATOM     17  C   UNL     1      23.089  39.186   7.335  1.00  0.00     0.046 A 
ATOM     18  C   UNL     1      23.855  38.186   7.923  1.00  0.00     0.115 A 
BRANCH  18  19
ATOM     19  O   UNL     1      24.140  37.028   7.261  1.00  0.00    -0.508 OA
ATOM     20  H   UNL     1      23.365  36.772   6.736  1.00  0.00     0.293 HD
ENDBRANCH  18  19
ENDBRANCH   3  13
BRANCH   9  21
ATOM     21  O   UNL     1      18.137  43.400  10.193  1.00  0.00    -0.507 OA
ATOM     22  H   UNL     1      17.918  44.250  10.626  1.00  0.00     0.293 HD
ENDBRANCH   9  21
BRANCH   7  23
ATOM     23  O   UNL     1      18.623  40.936  14.179  1.00  0.00    -0.508 OA
ATOM     24  H   UNL     1      18.086  41.629  14.599  1.00  0.00     0.293 HD
ENDBRANCH   7  23
TORSDOF 5
ENDMDL
