MODEL 1
REMARK VINA RESULT:    -6.128      0.000      0.000
REMARK INTER + INTRA:          -7.052
REMARK INTER:                  -6.844
REMARK INTRA:                  -0.208
REMARK UNBOUND:                -0.208
REMARK SMILES Clc1ccccc1-c1nc(-c2ccncc2)no1
REMARK SMILES IDX 1 1 2 2 3 3 4 4 5 5 6 6 7 7 8 8 9 9 18 10 10 11 17 12 11 13
REMARK SMILES IDX 12 14 16 15 13 16 15 17 14 18
REMARK H PARENT
ROOT
ATOM      1  Cl  UNL     1      22.278  33.883   8.702  1.00  0.00    -0.083 Cl
ATOM      2  C   UNL     1      21.776  32.228   8.623  1.00  0.00     0.053 A 
ATOM      3  C   UNL     1      21.892  31.603   7.373  1.00  0.00     0.021 A 
ATOM      4  C   UNL     1      21.562  30.257   7.218  1.00  0.00     0.002 A 
ATOM      5  C   UNL     1      21.120  29.526   8.315  1.00  0.00     0.001 A 
ATOM      6  C   UNL     1      21.003  30.145   9.561  1.00  0.00     0.015 A 
ATOM      7  C   UNL     1      21.315  31.508   9.738  1.00  0.00     0.058 A 
ENDROOT
BRANCH   7   8
ATOM      8  C   UNL     1      21.149  32.068  11.074  1.00  0.00     0.259 A 
ATOM      9  N   UNL     1      21.500  31.561  12.236  1.00  0.00    -0.187 NA
ATOM     10  O   UNL     1      20.454  33.235  11.195  1.00  0.00    -0.334 OA
ATOM     11  C   UNL     1      21.027  32.496  13.133  1.00  0.00     0.202 A 
ATOM     12  N   UNL     1      20.385  33.525  12.556  1.00  0.00    -0.057 NA
BRANCH  11  13
ATOM     13  C   UNL     1      21.211  32.355  14.571  1.00  0.00     0.026 A 
ATOM     14  C   UNL     1      21.456  31.105  15.148  1.00  0.00     0.032 A 
ATOM     15  C   UNL     1      21.146  33.474  15.404  1.00  0.00     0.032 A 
ATOM     16  C   UNL     1      21.624  31.033  16.521  1.00  0.00     0.111 A 
ATOM     17  C   UNL     1      21.326  33.299  16.765  1.00  0.00     0.111 A 
ATOM     18  N   UNL     1      21.565  32.104  17.341  1.00  0.00    -0.265 NA
ENDBRANCH  11  13
ENDBRANCH   7   8
TORSDOF 2
ENDMDL
MODEL 2
REMARK VINA RESULT:    -5.769      2.536      6.810
REMARK INTER + INTRA:          -6.652
REMARK INTER:                  -6.338
REMARK INTRA:                  -0.314
REMARK UNBOUND:                -0.208
REMARK SMILES Clc1ccccc1-c1nc(-c2ccncc2)no1
REMARK SMILES IDX 1 1 2 2 3 3 4 4 5 5 6 6 7 7 8 8 9 9 18 10 10 11 17 12 11 13
REMARK SMILES IDX 12 14 16 15 13 16 15 17 14 18
REMARK H PARENT
ROOT
ATOM      1  Cl  UNL     1      21.041  31.841  15.393  1.00  0.00    -0.083 Cl
ATOM      2  C   UNL     1      21.526  33.459  15.015  1.00  0.00     0.053 A 
ATOM      3  C   UNL     1      21.942  34.251  16.094  1.00  0.00     0.021 A 
ATOM      4  C   UNL     1      22.399  35.552  15.885  1.00  0.00     0.002 A 
ATOM      5  C   UNL     1      22.451  36.065  14.594  1.00  0.00     0.001 A 
ATOM      6  C   UNL     1      22.036  35.279  13.517  1.00  0.00     0.015 A 
ATOM      7  C   UNL     1      21.554  33.968  13.706  1.00  0.00     0.058 A 
ENDROOT
BRANCH   7   8
ATOM      8  C   UNL     1      21.134  33.230  12.520  1.00  0.00     0.259 A 
ATOM      9  N   UNL     1      21.869  32.717  11.557  1.00  0.00    -0.187 NA
ATOM     10  O   UNL     1      19.796  33.111  12.284  1.00  0.00    -0.334 OA
ATOM     11  C   UNL     1      20.924  32.211  10.689  1.00  0.00     0.202 A 
ATOM     12  N   UNL     1      19.658  32.426  11.079  1.00  0.00    -0.057 NA
BRANCH  11  13
ATOM     13  C   UNL     1      21.292  31.518   9.460  1.00  0.00     0.026 A 
ATOM     14  C   UNL     1      21.106  30.140   9.326  1.00  0.00     0.032 A 
ATOM     15  C   UNL     1      21.841  32.227   8.389  1.00  0.00     0.032 A 
ATOM     16  C   UNL     1      21.474  29.537   8.134  1.00  0.00     0.111 A 
ATOM     17  C   UNL     1      22.178  31.534   7.240  1.00  0.00     0.111 A 
ATOM     18  N   UNL     1      22.005  30.205   7.089  1.00  0.00    -0.265 NA
ENDBRANCH  11  13
ENDBRANCH   7   8
TORSDOF 2
ENDMDL
MODEL 3
REMARK VINA RESULT:    -5.763      1.985      2.457
REMARK INTER + INTRA:          -6.644
REMARK INTER:                  -6.340
REMARK INTRA:                  -0.305
REMARK UNBOUND:                -0.208
REMARK SMILES Clc1ccccc1-c1nc(-c2ccncc2)no1
REMARK SMILES IDX 1 1 2 2 3 3 4 4 5 5 6 6 7 7 8 8 9 9 18 10 10 11 17 12 11 13
REMARK SMILES IDX 12 14 16 15 13 16 15 17 14 18
REMARK H PARENT
ROOT
ATOM      1  Cl  UNL     1      22.293  34.057   8.289  1.00  0.00    -0.083 Cl
ATOM      2  C   UNL     1      21.762  32.426   8.525  1.00  0.00     0.053 A 
ATOM      3  C   UNL     1      21.800  31.591   7.399  1.00  0.00     0.021 A 
ATOM      4  C   UNL     1      21.441  30.247   7.499  1.00  0.00     0.002 A 
ATOM      5  C   UNL     1      21.048  29.729   8.727  1.00  0.00     0.001 A 
ATOM      6  C   UNL     1      21.008  30.558   9.851  1.00  0.00     0.015 A 
ATOM      7  C   UNL     1      21.350  31.923   9.770  1.00  0.00     0.058 A 
ENDROOT
BRANCH   7   8
ATOM      8  C   UNL     1      21.266  32.710  10.995  1.00  0.00     0.259 A 
ATOM      9  N   UNL     1      22.233  33.270  11.690  1.00  0.00    -0.187 NA
ATOM     10  O   UNL     1      20.047  32.830  11.594  1.00  0.00    -0.334 OA
ATOM     11  C   UNL     1      21.561  33.807  12.768  1.00  0.00     0.202 A 
ATOM     12  N   UNL     1      20.240  33.566  12.760  1.00  0.00    -0.057 NA
BRANCH  11  13
ATOM     13  C   UNL     1      22.246  34.556  13.814  1.00  0.00     0.026 A 
ATOM     14  C   UNL     1      22.083  35.939  13.937  1.00  0.00     0.032 A 
ATOM     15  C   UNL     1      23.084  33.899  14.718  1.00  0.00     0.032 A 
ATOM     16  C   UNL     1      22.759  36.596  14.951  1.00  0.00     0.111 A 
ATOM     17  C   UNL     1      23.717  34.644  15.697  1.00  0.00     0.111 A 
ATOM     18  N   UNL     1      23.572  35.978  15.833  1.00  0.00    -0.265 NA
ENDBRANCH  11  13
ENDBRANCH   7   8
TORSDOF 2
ENDMDL
MODEL 4
REMARK VINA RESULT:    -5.728      1.958      6.680
REMARK INTER + INTRA:          -6.606
REMARK INTER:                  -6.331
REMARK INTRA:                  -0.275
REMARK UNBOUND:                -0.208
REMARK SMILES Clc1ccccc1-c1nc(-c2ccncc2)no1
REMARK SMILES IDX 1 1 2 2 3 3 4 4 5 5 6 6 7 7 8 8 9 9 18 10 10 11 17 12 11 13
REMARK SMILES IDX 12 14 16 15 13 16 15 17 14 18
REMARK H PARENT
ROOT
ATOM      1  Cl  UNL     1      21.931  35.218  13.828  1.00  0.00    -0.083 Cl
ATOM      2  C   UNL     1      21.753  33.741  14.712  1.00  0.00     0.053 A 
ATOM      3  C   UNL     1      22.026  33.803  16.087  1.00  0.00     0.021 A 
ATOM      4  C   UNL     1      21.862  32.678  16.894  1.00  0.00     0.002 A 
ATOM      5  C   UNL     1      21.418  31.486  16.334  1.00  0.00     0.001 A 
ATOM      6  C   UNL     1      21.147  31.420  14.966  1.00  0.00     0.015 A 
ATOM      7  C   UNL     1      21.321  32.539  14.127  1.00  0.00     0.058 A 
ENDROOT
BRANCH   7   8
ATOM      8  C   UNL     1      21.022  32.369  12.709  1.00  0.00     0.259 A 
ATOM      9  N   UNL     1      21.661  31.657  11.805  1.00  0.00    -0.187 NA
ATOM     10  O   UNL     1      20.004  33.105  12.179  1.00  0.00    -0.334 OA
ATOM     11  C   UNL     1      20.967  31.940  10.648  1.00  0.00     0.202 A 
ATOM     12  N   UNL     1      19.960  32.812  10.818  1.00  0.00    -0.057 NA
BRANCH  11  13
ATOM     13  C   UNL     1      21.319  31.342   9.366  1.00  0.00     0.026 A 
ATOM     14  C   UNL     1      21.887  32.108   8.344  1.00  0.00     0.032 A 
ATOM     15  C   UNL     1      21.092  29.983   9.137  1.00  0.00     0.032 A 
ATOM     16  C   UNL     1      22.201  31.483   7.148  1.00  0.00     0.111 A 
ATOM     17  C   UNL     1      21.440  29.452   7.907  1.00  0.00     0.111 A 
ATOM     18  N   UNL     1      21.990  30.172   6.909  1.00  0.00    -0.265 NA
ENDBRANCH  11  13
ENDBRANCH   7   8
TORSDOF 2
ENDMDL
MODEL 5
REMARK VINA RESULT:    -5.661      4.560      6.882
REMARK INTER + INTRA:          -6.531
REMARK INTER:                  -6.201
REMARK INTRA:                  -0.329
REMARK UNBOUND:                -0.208
REMARK SMILES Clc1ccccc1-c1nc(-c2ccncc2)no1
REMARK SMILES IDX 1 1 2 2 3 3 4 4 5 5 6 6 7 7 8 8 9 9 18 10 10 11 17 12 11 13
REMARK SMILES IDX 12 14 16 15 13 16 15 17 14 18
REMARK H PARENT
ROOT
ATOM      1  Cl  UNL     1      24.465  36.842  10.026  1.00  0.00    -0.083 Cl
ATOM      2  C   UNL     1      23.723  37.551   8.632  1.00  0.00     0.053 A 
ATOM      3  C   UNL     1      23.811  38.947   8.524  1.00  0.00     0.021 A 
ATOM      4  C   UNL     1      23.289  39.607   7.412  1.00  0.00     0.002 A 
ATOM      5  C   UNL     1      22.683  38.875   6.397  1.00  0.00     0.001 A 
ATOM      6  C   UNL     1      22.593  37.485   6.502  1.00  0.00     0.015 A 
ATOM      7  C   UNL     1      23.099  36.798   7.624  1.00  0.00     0.058 A 
ENDROOT
BRANCH   7   8
ATOM      8  C   UNL     1      22.948  35.347   7.647  1.00  0.00     0.259 A 
ATOM      9  N   UNL     1      22.174  34.605   8.410  1.00  0.00    -0.187 NA
ATOM     10  O   UNL     1      23.772  34.608   6.851  1.00  0.00    -0.334 OA
ATOM     11  C   UNL     1      22.513  33.323   8.030  1.00  0.00     0.202 A 
ATOM     12  N   UNL     1      23.475  33.269   7.096  1.00  0.00    -0.057 NA
BRANCH  11  13
ATOM     13  C   UNL     1      21.877  32.148   8.613  1.00  0.00     0.026 A 
ATOM     14  C   UNL     1      21.370  32.173   9.915  1.00  0.00     0.032 A 
ATOM     15  C   UNL     1      21.763  30.968   7.874  1.00  0.00     0.032 A 
ATOM     16  C   UNL     1      20.775  31.026  10.415  1.00  0.00     0.111 A 
ATOM     17  C   UNL     1      21.152  29.874   8.462  1.00  0.00     0.111 A 
ATOM     18  N   UNL     1      20.656  29.878   9.715  1.00  0.00    -0.265 NA
ENDBRANCH  11  13
ENDBRANCH   7   8
TORSDOF 2
ENDMDL
MODEL 6
REMARK VINA RESULT:    -5.325      4.881      7.567
REMARK INTER + INTRA:          -6.155
REMARK INTER:                  -5.846
REMARK INTRA:                  -0.309
REMARK UNBOUND:                -0.208
REMARK SMILES Clc1ccccc1-c1nc(-c2ccncc2)no1
REMARK SMILES IDX 1 1 2 2 3 3 4 4 5 5 6 6 7 7 8 8 9 9 18 10 10 11 17 12 11 13
REMARK SMILES IDX 12 14 16 15 13 16 15 17 14 18
REMARK H PARENT
ROOT
ATOM      1  Cl  UNL     1      22.835  31.881   7.085  1.00  0.00    -0.083 Cl
ATOM      2  C   UNL     1      21.964  31.992   8.577  1.00  0.00     0.053 A 
ATOM      3  C   UNL     1      21.320  30.822   9.009  1.00  0.00     0.021 A 
ATOM      4  C   UNL     1      20.636  30.796  10.224  1.00  0.00     0.002 A 
ATOM      5  C   UNL     1      20.597  31.936  11.018  1.00  0.00     0.001 A 
ATOM      6  C   UNL     1      21.236  33.102  10.591  1.00  0.00     0.015 A 
ATOM      7  C   UNL     1      21.920  33.158   9.359  1.00  0.00     0.058 A 
ENDROOT
BRANCH   7   8
ATOM      8  C   UNL     1      22.546  34.424   8.995  1.00  0.00     0.259 A 
ATOM      9  N   UNL     1      22.301  35.205   7.965  1.00  0.00    -0.187 NA
ATOM     10  O   UNL     1      23.603  34.851   9.743  1.00  0.00    -0.334 OA
ATOM     11  C   UNL     1      23.242  36.203   8.110  1.00  0.00     0.202 A 
ATOM     12  N   UNL     1      24.055  36.034   9.165  1.00  0.00    -0.057 NA
BRANCH  11  13
ATOM     13  C   UNL     1      23.332  37.325   7.183  1.00  0.00     0.026 A 
ATOM     14  C   UNL     1      22.227  38.144   6.932  1.00  0.00     0.032 A 
ATOM     15  C   UNL     1      24.533  37.600   6.525  1.00  0.00     0.032 A 
ATOM     16  C   UNL     1      22.373  39.195   6.042  1.00  0.00     0.111 A 
ATOM     17  C   UNL     1      24.578  38.674   5.652  1.00  0.00     0.111 A 
ATOM     18  N   UNL     1      23.525  39.477   5.398  1.00  0.00    -0.265 NA
ENDBRANCH  11  13
ENDBRANCH   7   8
TORSDOF 2
ENDMDL
MODEL 7
REMARK VINA RESULT:    -5.299      3.242      7.513
REMARK INTER + INTRA:          -6.126
REMARK INTER:                  -5.887
REMARK INTRA:                  -0.239
REMARK UNBOUND:                -0.208
REMARK SMILES Clc1ccccc1-c1nc(-c2ccncc2)no1
REMARK SMILES IDX 1 1 2 2 3 3 4 4 5 5 6 6 7 7 8 8 9 9 18 10 10 11 17 12 11 13
REMARK SMILES IDX 12 14 16 15 13 16 15 17 14 18
REMARK H PARENT
ROOT
ATOM      1  Cl  UNL     1      21.532  29.112  12.719  1.00  0.00    -0.083 Cl
ATOM      2  C   UNL     1      21.302  30.824  12.599  1.00  0.00     0.053 A 
ATOM      3  C   UNL     1      21.190  31.522  13.810  1.00  0.00     0.021 A 
ATOM      4  C   UNL     1      21.054  32.910  13.820  1.00  0.00     0.002 A 
ATOM      5  C   UNL     1      21.036  33.609  12.618  1.00  0.00     0.001 A 
ATOM      6  C   UNL     1      21.146  32.916  11.410  1.00  0.00     0.015 A 
ATOM      7  C   UNL     1      21.267  31.512  11.375  1.00  0.00     0.058 A 
ENDROOT
BRANCH   7   8
ATOM      8  C   UNL     1      21.365  30.879  10.065  1.00  0.00     0.259 A 
ATOM      9  N   UNL     1      22.129  31.198   9.043  1.00  0.00    -0.187 NA
ATOM     10  O   UNL     1      20.494  29.869   9.779  1.00  0.00    -0.334 OA
ATOM     11  C   UNL     1      21.734  30.299   8.074  1.00  0.00     0.202 A 
ATOM     12  N   UNL     1      20.747  29.478   8.466  1.00  0.00    -0.057 NA
BRANCH  11  13
ATOM     13  C   UNL     1      22.341  30.270   6.750  1.00  0.00     0.026 A 
ATOM     14  C   UNL     1      21.637  29.784   5.644  1.00  0.00     0.032 A 
ATOM     15  C   UNL     1      23.646  30.730   6.562  1.00  0.00     0.032 A 
ATOM     16  C   UNL     1      22.266  29.781   4.410  1.00  0.00     0.111 A 
ATOM     17  C   UNL     1      24.187  30.686   5.289  1.00  0.00     0.111 A 
ATOM     18  N   UNL     1      23.526  30.223   4.210  1.00  0.00    -0.265 NA
ENDBRANCH  11  13
ENDBRANCH   7   8
TORSDOF 2
ENDMDL
MODEL 8
REMARK VINA RESULT:    -5.061      2.557      6.960
REMARK INTER + INTRA:          -5.860
REMARK INTER:                  -5.525
REMARK INTRA:                  -0.335
REMARK UNBOUND:                -0.208
REMARK SMILES Clc1ccccc1-c1nc(-c2ccncc2)no1
REMARK SMILES IDX 1 1 2 2 3 3 4 4 5 5 6 6 7 7 8 8 9 9 18 10 10 11 17 12 11 13
REMARK SMILES IDX 12 14 16 15 13 16 15 17 14 18
REMARK H PARENT
ROOT
ATOM      1  Cl  UNL     1      23.808  31.143  15.952  1.00  0.00    -0.083 Cl
ATOM      2  C   UNL     1      22.419  32.107  16.322  1.00  0.00     0.053 A 
ATOM      3  C   UNL     1      22.444  32.787  17.549  1.00  0.00     0.021 A 
ATOM      4  C   UNL     1      21.396  33.630  17.915  1.00  0.00     0.002 A 
ATOM      5  C   UNL     1      20.318  33.803  17.054  1.00  0.00     0.001 A 
ATOM      6  C   UNL     1      20.289  33.127  15.832  1.00  0.00     0.015 A 
ATOM      7  C   UNL     1      21.330  32.257  15.448  1.00  0.00     0.058 A 
ENDROOT
BRANCH   7   8
ATOM      8  C   UNL     1      21.204  31.588  14.159  1.00  0.00     0.259 A 
ATOM      9  N   UNL     1      21.471  32.047  12.955  1.00  0.00    -0.187 NA
ATOM     10  O   UNL     1      20.647  30.343  14.139  1.00  0.00    -0.334 OA
ATOM     11  C   UNL     1      21.092  31.001  12.139  1.00  0.00     0.202 A 
ATOM     12  N   UNL     1      20.585  29.950  12.804  1.00  0.00    -0.057 NA
BRANCH  11  13
ATOM     13  C   UNL     1      21.231  31.059  10.690  1.00  0.00     0.026 A 
ATOM     14  C   UNL     1      20.971  29.939   9.894  1.00  0.00     0.032 A 
ATOM     15  C   UNL     1      21.629  32.244  10.067  1.00  0.00     0.032 A 
ATOM     16  C   UNL     1      21.120  30.055   8.522  1.00  0.00     0.111 A 
ATOM     17  C   UNL     1      21.749  32.259   8.688  1.00  0.00     0.111 A 
ATOM     18  N   UNL     1      21.503  31.191   7.903  1.00  0.00    -0.265 NA
ENDBRANCH  11  13
ENDBRANCH   7   8
TORSDOF 2
ENDMDL
MODEL 9
REMARK VINA RESULT:    -4.969      9.580     10.798
REMARK INTER + INTRA:          -5.758
REMARK INTER:                  -5.427
REMARK INTRA:                  -0.331
REMARK UNBOUND:                -0.208
REMARK SMILES Clc1ccccc1-c1nc(-c2ccncc2)no1
REMARK SMILES IDX 1 1 2 2 3 3 4 4 5 5 6 6 7 7 8 8 9 9 18 10 10 11 17 12 11 13
REMARK SMILES IDX 12 14 16 15 13 16 15 17 14 18
REMARK H PARENT
ROOT
ATOM      1  Cl  UNL     1      19.613  45.278  13.437  1.00  0.00    -0.083 Cl
ATOM      2  C   UNL     1      19.276  44.748  11.824  1.00  0.00     0.053 A 
ATOM      3  C   UNL     1      18.765  45.715  10.946  1.00  0.00     0.021 A 
ATOM      4  C   UNL     1      18.509  45.399   9.612  1.00  0.00     0.002 A 
ATOM      5  C   UNL     1      18.769  44.116   9.146  1.00  0.00     0.001 A 
ATOM      6  C   UNL     1      19.277  43.150  10.018  1.00  0.00     0.015 A 
ATOM      7  C   UNL     1      19.527  43.441  11.374  1.00  0.00     0.058 A 
ENDROOT
BRANCH   7   8
ATOM      8  C   UNL     1      20.047  42.364  12.208  1.00  0.00     0.259 A 
ATOM      9  N   UNL     1      21.227  41.783  12.175  1.00  0.00    -0.187 NA
ATOM     10  O   UNL     1      19.195  41.779  13.098  1.00  0.00    -0.334 OA
ATOM     11  C   UNL     1      21.111  40.801  13.136  1.00  0.00     0.202 A 
ATOM     12  N   UNL     1      19.903  40.754  13.720  1.00  0.00    -0.057 NA
BRANCH  11  13
ATOM     13  C   UNL     1      22.211  39.903  13.464  1.00  0.00     0.026 A 
ATOM     14  C   UNL     1      22.252  39.230  14.689  1.00  0.00     0.032 A 
ATOM     15  C   UNL     1      23.249  39.699  12.553  1.00  0.00     0.032 A 
ATOM     16  C   UNL     1      23.323  38.389  14.944  1.00  0.00     0.111 A 
ATOM     17  C   UNL     1      24.276  38.838  12.901  1.00  0.00     0.111 A 
ATOM     18  N   UNL     1      24.334  38.179  14.076  1.00  0.00    -0.265 NA
ENDBRANCH  11  13
ENDBRANCH   7   8
TORSDOF 2
ENDMDL
