REMARK SMILES O=C1C[C@H](c2ccc(O)cc2)Oc2cc(O)cc(O)c21
REMARK SMILES IDX 1 1 2 2 3 3 4 4 12 5 13 6 14 7 15 8 17 9 18 10 20 11 5 12
REMARK SMILES IDX 6 13 11 14 7 15 10 16 8 17 9 18 19 20 16 22
REMARK H PARENT 9 19 19 21 16 23
ROOT
ATOM      1  O   UNL     1      -2.016  -2.919   0.963  1.00  0.00    -0.294 OA
ATOM      2  C   UNL     1      -1.478  -1.870   0.615  1.00  0.00     0.174 C 
ATOM      3  C   UNL     1       0.004  -1.735   0.426  1.00  0.00     0.131 C 
ATOM      4  C   UNL     1       0.248  -0.692  -0.656  1.00  0.00     0.211 C 
ATOM      5  O   UNL     1      -0.308   0.580  -0.280  1.00  0.00    -0.484 OA
ATOM      6  C   UNL     1      -1.646   0.515   0.009  1.00  0.00     0.138 A 
ATOM      7  C   UNL     1      -2.364   1.706  -0.110  1.00  0.00     0.093 A 
ATOM      8  C   UNL     1      -3.730   1.707   0.160  1.00  0.00     0.123 A 
ATOM      9  C   UNL     1      -4.385   0.544   0.555  1.00  0.00     0.093 A 
ATOM     10  C   UNL     1      -3.662  -0.637   0.694  1.00  0.00     0.133 A 
ATOM     11  C   UNL     1      -2.289  -0.653   0.428  1.00  0.00     0.102 A 
ENDROOT
BRANCH   4  12
ATOM     12  C   UNL     1       1.734  -0.521  -0.908  1.00  0.00    -0.007 A 
ATOM     13  C   UNL     1       2.533   0.259  -0.056  1.00  0.00     0.011 A 
ATOM     14  C   UNL     1       2.344  -1.176  -1.991  1.00  0.00     0.011 A 
ATOM     15  C   UNL     1       3.904   0.387  -0.287  1.00  0.00     0.046 A 
ATOM     16  C   UNL     1       3.717  -1.048  -2.222  1.00  0.00     0.046 A 
ATOM     17  C   UNL     1       4.484  -0.266  -1.367  1.00  0.00     0.115 A 
BRANCH  17  18
ATOM     18  O   UNL     1       5.826  -0.113  -1.554  1.00  0.00    -0.508 OA
ATOM     19  H   UNL     1       6.089  -0.617  -2.342  1.00  0.00     0.293 HD
ENDBRANCH  17  18
ENDBRANCH   4  12
BRANCH  10  20
ATOM     20  O   UNL     1      -4.354  -1.744   1.103  1.00  0.00    -0.507 OA
ATOM     21  H   UNL     1      -3.722  -2.494   1.177  1.00  0.00     0.293 HD
ENDBRANCH  10  20
BRANCH   8  22
ATOM     22  O   UNL     1      -4.473   2.845   0.046  1.00  0.00    -0.508 OA
ATOM     23  H   UNL     1      -3.894   3.579  -0.222  1.00  0.00     0.293 HD
ENDBRANCH   8  22
TORSDOF 4
