REMARK SMILES Clc1ccccc1-c1nc(-c2ccncc2)no1
REMARK SMILES IDX 1 1 2 2 3 3 4 4 5 5 6 6 7 7 8 8 9 9 18 10 10 11 17 12 11 13
REMARK SMILES IDX 12 14 16 15 13 16 15 17 14 18
REMARK H PARENT
ROOT
ATOM      1  Cl  UNL     1       2.707  -2.862  -1.251  1.00  0.00    -0.083 Cl
ATOM      2  C   UNL     1       3.131  -1.368  -0.486  1.00  0.00     0.053 A 
ATOM      3  C   UNL     1       4.502  -1.090  -0.383  1.00  0.00     0.021 A 
ATOM      4  C   UNL     1       4.943   0.111   0.171  1.00  0.00     0.002 A 
ATOM      5  C   UNL     1       4.016   1.045   0.619  1.00  0.00     0.001 A 
ATOM      6  C   UNL     1       2.650   0.771   0.519  1.00  0.00     0.015 A 
ATOM      7  C   UNL     1       2.181  -0.443  -0.022  1.00  0.00     0.058 A 
ENDROOT
BRANCH   7   8
ATOM      8  C   UNL     1       0.737  -0.642  -0.074  1.00  0.00     0.259 A 
ATOM      9  N   UNL     1      -0.222   0.254  -0.167  1.00  0.00    -0.187 NA
ATOM     10  O   UNL     1       0.262  -1.910   0.088  1.00  0.00    -0.334 OA
ATOM     11  C   UNL     1      -1.365  -0.515  -0.099  1.00  0.00     0.202 A 
ATOM     12  N   UNL     1      -1.128  -1.827   0.059  1.00  0.00    -0.057 NA
BRANCH  11  13
ATOM     13  C   UNL     1      -2.698   0.068  -0.184  1.00  0.00     0.026 A 
ATOM     14  C   UNL     1      -3.842  -0.730  -0.094  1.00  0.00     0.032 A 
ATOM     15  C   UNL     1      -2.855   1.445  -0.359  1.00  0.00     0.032 A 
ATOM     16  C   UNL     1      -5.082  -0.119  -0.181  1.00  0.00     0.111 A 
ATOM     17  C   UNL     1      -4.137   1.961  -0.435  1.00  0.00     0.111 A 
ATOM     18  N   UNL     1      -5.253   1.209  -0.349  1.00  0.00    -0.265 NA
ENDBRANCH  11  13
ENDBRANCH   7   8
TORSDOF 2
